$ MSC.Nastran input file created on April     27, 2023 at 15:46:34 by
$ Patran 2019
$ Direct Text Input for Nastran System Cell Section
$ Direct Text Input for File Management Section
$ Direct Text Input for Executive Control
$ Linear Static Analysis, Database
SOL 101
CEND
$ Direct Text Input for Global Case Control Data
TITLE = MSC.Nastran job created on 27-Apr-23 at 15:45:23
ECHO = NONE
SUBCASE 1
$ Subcase name : Default
   SUBTITLE=Default
   DISPLACEMENT(SORT1,REAL)=ALL
   SPCFORCES(SORT1,REAL)=ALL
   STRESS(SORT1,REAL,VONMISES,BILIN)=ALL
BEGIN BULK
$ Direct Text Input for Bulk Data
MDLPRM   HDF5    0
PARAM   PRTMAXIM YES
$ Elements and Element Properties for region : seaplane
PSHELL   1       1      1.       1               1
$ Pset: "seaplane" will be imported as: "pshell.1"
CQUAD4   1       1       1       2       17      16
CQUAD4   2       1       2       3       18      17
CQUAD4   3       1       3       4       19      18
CQUAD4   4       1       4       5       20      19
CQUAD4   5       1       5       6       21      20
CQUAD4   6       1       6       7       22      21
CQUAD4   7       1       7       8       23      22
CQUAD4   15      1       16      17      32      31
CQUAD4   16      1       17      18      33      32
CQUAD4   17      1       18      19      34      33
CQUAD4   18      1       19      20      35      34
CQUAD4   19      1       20      21      36      35
CQUAD4   20      1       21      22      37      36
CQUAD4   21      1       22      23      38      37
CQUAD4   29      1       31      32      47      46
CQUAD4   30      1       32      33      48      47
CQUAD4   31      1       33      34      49      48
CQUAD4   32      1       34      35      50      49
CQUAD4   33      1       35      36      51      50
CQUAD4   34      1       36      37      52      51
$ ... 1462 like lines cut
CTRIA3   3098    1       2883    2980    2979
CTRIA3   3101    1       2871    2967    2966
CQUAD4   3102    1       2875    2876    3558    3507
CQUAD4   3103    1       3507    3558    3559    3509
CQUAD4   3104    1       3509    3559    3560    3511
CQUAD4   3105    1       3511    3560    3561    3513
CQUAD4   3106    1       3513    3561    3562    3515
CQUAD4   3107    1       3515    3562    3563    3517
CQUAD4   3108    1       3517    3563    3564    3519
CQUAD4   3109    1       3519    3564    3565    3521
CQUAD4   3110    1       3521    3565    3566    3523
CQUAD4   3111    1       3523    3566    3546    3525
CQUAD4   3112    1       2383    2384    2466    2465
CTRIA3   3113    1       2384    2467    2466
CTRIA3   3114    1       2387    2471    2470
CTRIA3   3115    1       2392    2477    2476
CTRIA3   3116    1       2396    2482    2481
CTRIA3   3117    1       1984    2057    2056
CTRIA3   3118    1       1601    1670    1669
CTRIA3   3119    1       1252    1308    1307
CQUAD4   3120    1       1252    1251    1309    1308
CTRIA3   3121    1       1258    1301    1300
CTRIA3   3122    1       942     999     1000
CTRIA3   3123    1       625     698     699
CTRIA3   3124    1       631     691     692
CTRIA3   3125    1       387     424     423
CTRIA3   3126    1       160     201     202
CTRIA3   3127    1       156     196     197
CTRIA3   3128    1       48      91      92
CQUAD4   3129    1       3601    3607    3608    3602
CQUAD4   3130    1       3602    3608    3609    3603
CQUAD4   3131    1       3603    3609    3610    3604
CQUAD4   3132    1       3604    3610    3611    3605
CQUAD4   3133    1       3605    3611    3612    3606
CQUAD4   3134    1       3607    6       5       3608
CQUAD4   3135    1       3608    5       4       3609
CQUAD4   3136    1       3609    4       3       3610
CQUAD4   3137    1       3610    3       2       3611
CQUAD4   3138    1       3611    2       1       3612
CQUAD4   3140    1       3601    3621    3622    3607
CQUAD4   3141    1       3607    3622    7       6
CQUAD4   3142    1       3621    8       7       3622
CQUAD4   4518    1       5542    5549    5550    5543
CQUAD4   4519    1       5543    5550    5551    5544
CQUAD4   4520    1       5544    5551    5552    5545
CQUAD4   4521    1       5545    5552    5553    5546
CQUAD4   4522    1       5546    5553    5554    5547
CQUAD4   4523    1       5547    5554    5555    5548
CQUAD4   4524    1       5549    5556    5557    5550
$ ... 299 like lines cut
CTRIA3   4824    1       5928    5934    5901
CTRIA3   4825    1       5920    5919    5922
CQUAD4   4826    1       5902    5935    5936    5904
CQUAD4   4827    1       5904    5936    5937    5907
CQUAD4   4828    1       5907    5937    5938    5910
CQUAD4   4829    1       5910    5938    5939    5913
CQUAD4   4830    1       5913    5939    5940    5916
CQUAD4   4831    1       5916    5940    5941    5919
CQUAD4   4832    1       5919    5941    5942    5922
CQUAD4   4833    1       5922    5942    5943    5929
CQUAD4   4834    1       5929    5943    5944    5930
CQUAD4   4835    1       5930    5944    5945    5931
CQUAD4   4836    1       5931    5945    5946    5932
CQUAD4   4837    1       5932    5946    5947    5933
CQUAD4   4838    1       5933    5947    5948    5934
CQUAD4   4839    1       5934    5948    5949    5901
CQUAD4   4840    1       5935    5950    5951    5936
CQUAD4   4841    1       5936    5951    5952    5937
CQUAD4   4842    1       5937    5952    5953    5938
CQUAD4   4843    1       5938    5953    5954    5939
CQUAD4   4844    1       5939    5954    5955    5940
CQUAD4   4845    1       5940    5955    5956    5941
$ ... 112 like lines cut
CTRIA3   4958    1       6033    6040    6034
CQUAD4   4959    1       5900    5566    5580    6041
CQUAD4   4960    1       6041    5580    5593    6042
CQUAD4   4961    1       6042    5593    5606    6043
CQUAD4   4962    1       6043    5606    5619    6044
CQUAD4   4963    1       6044    5619    5632    6045
CQUAD4   4964    1       6045    5632    5645    6046
CQUAD4   4965    1       6046    5645    5658    6047
CQUAD4   4966    1       5671    5670    6081    6079
CQUAD4   4967    1       6079    6081    6052    6080
CQUAD4   4968    1       5669    5668    6083    6082
CQUAD4   4969    1       6082    6083    6084    6052
CQUAD4   4970    1       5668    5667    6085    6083
CQUAD4   4971    1       6083    6085    6086    6084
CQUAD4   4972    1       5667    6006    6087    6085
CQUAD4   4973    1       6085    6087    6051    6086
CQUAD4   4974    1       6013    6020    6089    6088
CQUAD4   4975    1       6088    6089    6050    6051
CQUAD4   4976    1       6027    6034    6091    6090
CQUAD4   4977    1       6090    6091    6092    6050
CQUAD4   4978    1       6034    6047    6093    6091
$ ... 20 like lines cut
CTRIA3   4999    1       6099    6100    6048
CTRIA3   5000    1       6093    6094    6049
CTRIA3   5001    1       6087    6088    6051
CTRIA3   5002    1       6089    6090    6050
CTRIA3   5003    1       6081    6082    6052
CQUAD4   5004    1       6080    6052    6110    6109
CQUAD4   5005    1       6109    6110    6065    6066
CQUAD4   5006    1       6084    6086    6112    6111
CQUAD4   5007    1       6111    6112    6064    6065
CQUAD4   5008    1       6086    6051    6113    6112
CQUAD4   5009    1       6112    6113    6063    6064
CQUAD4   5010    1       6051    6050    6114    6113
CQUAD4   5011    1       6113    6114    6062    6063
CQUAD4   5012    1       6092    6049    6117    6116
CQUAD4   5013    1       6116    6117    6060    6061
CQUAD4   5014    1       6049    6096    6118    6117
CQUAD4   5015    1       6117    6118    6054    6060
CQUAD4   5016    1       6096    6098    6119    6118
CQUAD4   5017    1       6118    6119    6055    6054
CQUAD4   5018    1       6098    6048    6120    6119
CQUAD4   5019    1       6119    6120    6056    6055
CQUAD4   5020    1       6102    6104    6122    6121
CQUAD4   5021    1       6121    6122    6057    6056
CQUAD4   5022    1       6104    6106    6123    6122
CQUAD4   5023    1       6122    6123    6053    6057
CQUAD4   5024    1       6106    6108    6124    6123
CQUAD4   5025    1       6123    6124    6058    6053
CTRIA3   5026    1       6110    6111    6065
CTRIA3   5027    1       6092    6116    6115
CTRIA3   5028    1       6120    6121    6056
CQUAD4   5029    1       6052    6084    6111    6110
CQUAD4   5030    1       6115    6116    6061    6059
CQUAD4   5031    1       6048    6102    6121    6120
CQUAD4   5032    1       6072    6067    6126    6125
CQUAD4   5033    1       6125    6126    5563    5542
CQUAD4   5034    1       6071    6072    6125    6127
CQUAD4   5035    1       6127    6125    5542    5543
CQUAD4   5036    1       6073    6068    6129    6128
CQUAD4   5037    1       6128    6129    5544    5545
CQUAD4   5038    1       6074    6073    6128    6130
CQUAD4   5039    1       6130    6128    5545    5546
CQUAD4   5040    1       6076    6075    6132    6131
CQUAD4   5041    1       6131    6132    5546    5547
CQUAD4   5042    1       6078    6077    6134    6133
CQUAD4   5043    1       6133    6134    5547    5548
CQUAD4   5044    1       6077    6076    6131    6134
CQUAD4   5045    1       6068    6069    6135    6129
CQUAD4   5046    1       6135    6136    5543    5544
CTRIA3   5047    1       6069    6136    6135
CTRIA3   5048    1       6129    6135    5544
CTRIA3   5049    1       6134    6131    5547
CQUAD4   5050    1       6075    6137    6138    6132
CQUAD4   5051    1       6132    6138    6130    5546
CQUAD4   5052    1       6137    6074    6130    6138
CQUAD4   5053    1       6069    6070    6139    6136
CQUAD4   5054    1       6136    6139    6127    5543
CQUAD4   5055    1       6070    6071    6127    6139
CQUAD4   5056    1       6050    6092    6115    6114
CQUAD4   5057    1       6114    6115    6059    6062
CQUAD4   5058    1       5576    5575    5994    5589
CQUAD4   5059    1       5589    5994    5995    5602
CQUAD4   5060    1       5602    5995    5996    5615
CQUAD4   5061    1       5615    5996    5997    5628
CQUAD4   5062    1       5628    5997    5998    5641
CQUAD4   5063    1       5641    5998    5999    5654
CQUAD4   5064    1       5654    5999    5667    5668
CQUAD4   5065    1       6066    6065    6144    6141
CQUAD4   5066    1       6141    6144    6077    6078
CQUAD4   5067    1       6065    6064    6150    6144
CQUAD4   5068    1       6144    6150    6076    6077
CQUAD4   5069    1       6064    6063    6156    6150
$ ... 20 like lines cut
CTRIA3   5090    1       6061    6177    6174
CTRIA3   5091    1       6192    6195    6071
CTRIA3   5092    1       6198    6201    6072
CQUAD4   5093    1       6206    6207    6258    6257
CQUAD4   5094    1       6207    6208    6259    6258
CQUAD4   5095    1       6208    6209    6260    6259
CQUAD4   5096    1       6209    6210    6261    6260
CQUAD4   5097    1       6210    6211    6262    6261
CQUAD4   5098    1       6211    6212    6263    6262
CQUAD4   5099    1       6212    6213    6264    6263
CQUAD4   5107    1       6220    6221    6272    6271
CQUAD4   5108    1       6221    6239    6290    6272
CQUAD4   5109    1       6239    6238    6289    6290
CQUAD4   5110    1       6238    6237    6288    6289
CQUAD4   5111    1       6237    6236    6287    6288
CQUAD4   5112    1       6236    6235    6286    6287
CQUAD4   5113    1       6235    6234    6285    6286
CQUAD4   5114    1       6234    6233    6284    6285
CQUAD4   5115    1       6233    6232    6283    6284
CQUAD4   5116    1       6232    6231    6282    6283
CQUAD4   5117    1       6231    6240    6291    6282
CQUAD4   5143    1       6257    6258    6309    6308
CQUAD4   5144    1       6258    6259    6310    6309
$ ... 386 like lines cut
CTRIA3   5953    1       7077    7104    5902
CQUAD4   5954    1       7246    6982    7254    7247
CQUAD4   5955    1       7247    7254    7255    7248
CQUAD4   5956    1       7248    7255    7256    7249
CQUAD4   5957    1       7249    7256    7257    7250
CQUAD4   5958    1       7250    7257    7258    7251
CQUAD4   5959    1       7251    7258    7259    7252
CQUAD4   5962    1       7254    7269    7270    7255
CQUAD4   5963    1       7255    7270    7271    7256
CQUAD4   5964    1       7256    7271    7272    7257
CQUAD4   5965    1       7257    7272    7273    7258
CQUAD4   5966    1       7258    7273    7274    7259
CQUAD4   5967    1       7259    7274    7088    7087
CQUAD4   5968    1       6982    7283    7284    7269
CQUAD4   5969    1       7269    7284    7285    7270
CQUAD4   5970    1       7270    7285    7286    7271
CQUAD4   5971    1       7271    7286    7287    7272
CQUAD4   5972    1       7272    7287    7288    7273
CQUAD4   5973    1       7273    7288    7289    7274
CQUAD4   5975    1       7283    7299    7300    7284
CQUAD4   5976    1       7284    7300    7301    7285
$ ... 5 like lines cut
CTRIA3   5989    1       7252    7259    7087
CTRIA3   5990    1       7274    7289    7088
CTRIA3   5991    1       6982    7269    7254
CQUAD4   5992    1       7323    7246    7247    7324
CQUAD4   5993    1       7324    7247    7248    7325
CQUAD4   5994    1       7325    7248    7249    7326
CQUAD4   5995    1       7326    7249    7250    7327
CQUAD4   5996    1       7327    7250    7251    7328
CQUAD4   5997    1       7328    7251    7252    7329
CQUAD4   5998    1       7329    7252    7087    6571
CQUAD4   5999    1       6214    7323    7324    7340
CQUAD4   6000    1       7340    7324    7325    7341
CQUAD4   6001    1       7341    7325    7326    7342
CQUAD4   6002    1       7342    7326    7327    7343
CQUAD4   6003    1       7343    7327    7328    7344
CQUAD4   6004    1       7344    7328    7329    7345
CTRIA3   6005    1       7345    7329    6571
CQUAD4   6006    1       7355    7356    7407    7406
CQUAD4   6007    1       7356    7357    7408    7407
CQUAD4   6008    1       7357    7358    7409    7408
CQUAD4   6009    1       7358    7359    7410    7409
CQUAD4   6010    1       7359    7360    7411    7410
CQUAD4   6011    1       7360    7361    7412    7411
CQUAD4   6012    1       7361    7362    7413    7412
CQUAD4   6013    1       7362    7363    7414    7413
CQUAD4   6014    1       7363    7364    7415    7414
CQUAD4   6020    1       7369    7370    7421    7420
CQUAD4   6021    1       7370    7388    7439    7421
CQUAD4   6022    1       7388    7387    7438    7439
CQUAD4   6023    1       7387    7386    7437    7438
CQUAD4   6024    1       7386    7385    7436    7437
CQUAD4   6025    1       7385    7384    7435    7436
CQUAD4   6026    1       7384    7383    7434    7435
CQUAD4   6027    1       7383    7382    7433    7434
CQUAD4   6028    1       7382    7381    7432    7433
CQUAD4   6029    1       7381    7380    7431    7432
CQUAD4   6030    1       7380    7389    7440    7431
$ ... 197 like lines cut
CTRIA3   6771    1       7670    8338    7721
CQUAD4   6772    1       7364    8242    8333    7415
CQUAD4   6773    1       7415    8333    8334    7466
CQUAD4   6774    1       7466    8334    8335    7517
CQUAD4   6775    1       7517    8335    8336    7568
CQUAD4   6776    1       7568    8336    8337    7619
CQUAD4   6777    1       7619    8337    8338    7670
CQUAD4   6778    1       6672    6673    7765    6723
CQUAD4   6779    1       6723    7765    7766    6774
CQUAD4   6780    1       6774    7766    7767    6825
CQUAD4   6781    1       6825    7767    7768    6876
CQUAD4   6782    1       6876    7768    6928    6927
CQUAD4   6783    1       6927    6928    6214    6213
CQUAD4   6784    1       6213    6214    7340    6264
CQUAD4   6785    1       6264    7340    7341    6315
CQUAD4   6786    1       6315    7341    7342    6366
CQUAD4   6787    1       6366    7342    7343    6417
CQUAD4   6788    1       6417    7343    7344    6468
CQUAD4   6789    1       6468    7344    7345    6519
CQUAD4   6790    1       6570    6519    7345    6571
CQUAD4   6791    1       7726    6629    6680    7852
$ ... 201 like lines cut
CTRIA3   7344    1       8934    8942    7370
CQUAD4   7345    1       9110    9111    9166    9165
CQUAD4   7346    1       9111    9112    9167    9166
CQUAD4   7347    1       9112    9113    9168    9167
CQUAD4   7348    1       9113    9114    9169    9168
CQUAD4   7349    1       9114    9115    9170    9169
CQUAD4   7350    1       9115    9116    9171    9170
CQUAD4   7351    1       9116    9117    9172    9171
CQUAD4   7352    1       9117    9118    9173    9172
CQUAD4   7361    1       9126    9127    9182    9181
CQUAD4   7362    1       9127    9128    9201    9182
CQUAD4   7363    1       9128    9138    9200    9201
CQUAD4   7364    1       9138    9146    9199    9200
CQUAD4   7365    1       9146    9145    9198    9199
CQUAD4   7366    1       9145    9144    9197    9198
CQUAD4   7367    1       9144    9143    9196    9197
CQUAD4   7368    1       9143    9142    9195    9196
CQUAD4   7369    1       9142    9141    9194    9195
CQUAD4   7370    1       9141    9140    9193    9194
CQUAD4   7371    1       9140    9139    9192    9193
CQUAD4   7399    1       9165    9166    9221    9220
$ ... 212 like lines cut
CTRIA3   7621    1       9231    9362    9354
CTRIA3   7622    1       9439    9447    8936
CQUAD4   7623    1       9584    9585    9640    9639
CQUAD4   7624    1       9585    9586    9641    9640
CQUAD4   7625    1       9586    9587    9642    9641
CQUAD4   7626    1       9587    9588    9643    9642
CQUAD4   7627    1       9588    9589    9644    9643
CQUAD4   7628    1       9589    9590    9645    9644
CQUAD4   7629    1       9590    9591    9646    9645
CQUAD4   7630    1       9591    9592    9647    9646
CQUAD4   7631    1       9592    9593    9648    9647
CQUAD4   7632    1       9593    9594    9649    9648
CQUAD4   7639    1       9600    9601    9656    9655
CQUAD4   7640    1       9601    9620    9675    9656
CQUAD4   7641    1       9620    9611    9674    9675
CQUAD4   7642    1       9611    9619    9673    9674
CQUAD4   7643    1       9619    9618    9672    9673
CQUAD4   7644    1       9618    9617    9671    9672
CQUAD4   7645    1       9617    9616    9670    9671
CQUAD4   7646    1       9616    9615    9669    9670
CQUAD4   7647    1       9615    9614    9668    9669
CQUAD4   7648    1       9614    9613    9667    9668
$ ... 302 like lines cut
CTRIA3   8256    1       10372   10346   9707
CTRIA3   8257    1       10372   10367   9233
CQUAD4   8258    1       10346   10372   9233    9231
CQUAD4   8259    1       9707    9705    10367   10372
CQUAD4   8262    1       10295   10296   10374   10380
CQUAD4   8263    1       10380   10374   10348   10354
CQUAD4   8264    1       10294   10295   10380   10386
CQUAD4   8265    1       10386   10380   10354   10360
CQUAD4   8266    1       10293   10294   10386   10392
CQUAD4   8267    1       10392   10386   10360   9705
CQUAD4   8268    1       10292   10293   10392   10398
CQUAD4   8269    1       10398   10392   9705    9707
CQUAD4   8270    1       9594    10292   10398   9649
CQUAD4   8271    1       9649    10398   9707    9704
CQUAD4   8272    1       10403   10404   10461   10460
CQUAD4   8273    1       10404   10405   10462   10461
CQUAD4   8274    1       10405   10406   10463   10462
CQUAD4   8275    1       10406   10407   10464   10463
CQUAD4   8277    1       10408   10409   10466   10465
CQUAD4   8278    1       10409   10410   10467   10466
CQUAD4   8279    1       10410   10411   10468   10467
CQUAD4   8280    1       10411   10412   10469   10468
$ ... 410 like lines cut
CTRIA3   9374    1       10932   10933   9747
CQUAD4   9375    1       9118    9119    10337   9173
CQUAD4   9376    1       9173    10337   9229    9228
CQUAD4   9377    1       10296   9600    9655    10374
CQUAD4   9378    1       10374   9655    9126    10348
CQUAD4   9379    1       10348   9126    9181    10349
CQUAD4   9380    1       10349   9181    9236    9235
CQUAD4   9402    1       11658   11679   11680   11670
CQUAD4   9403    1       11670   11680   11681   11671
CQUAD4   9404    1       11671   11681   11682   11672
CQUAD4   9405    1       11672   11682   11683   11673
CQUAD4   9406    1       11673   11683   11684   11674
CQUAD4   9407    1       11674   11684   11685   11675
CQUAD4   9408    1       11675   11685   11686   11676
CQUAD4   9409    1       11676   11686   11687   11677
CQUAD4   9410    1       11677   11687   10416   10415
CQUAD4   9411    1       11657   11700   11701   11679
CQUAD4   9412    1       11679   11701   11702   11680
CQUAD4   9413    1       11680   11702   11703   11681
CQUAD4   9414    1       11681   11703   11704   11682
CQUAD4   9415    1       11682   11704   11705   11683
$ ... 63 like lines cut
CTRIA3   9482    1       11657   11679   11658
CTRIA3   9483    1       11731   11752   10419
CTRIA3   9484    1       11743   11765   11744
CQUAD4   9485    1       11018   11079   11845   11820
CQUAD4   9486    1       11820   11845   11838   11821
CQUAD4   9487    1       11821   11838   11837   11822
CQUAD4   9488    1       11822   11837   11836   11823
CQUAD4   9489    1       11823   11836   11835   11824
CQUAD4   9490    1       11824   11835   11834   11825
CQUAD4   9491    1       11825   11834   11833   11826
CQUAD4   9492    1       11826   11833   11831   11827
CQUAD4   9493    1       11827   11831   11832   11828
CQUAD4   9494    1       11828   11832   10407   10406
CQUAD4   9495    1       11079   11140   11849   11845
CQUAD4   9496    1       11845   11849   11846   11838
CQUAD4   9497    1       11838   11846   11847   11837
CQUAD4   9498    1       11837   11847   11848   11836
CQUAD4   9499    1       11836   11848   11839   11835
CQUAD4   9500    1       11835   11839   11840   11834
CQUAD4   9501    1       11834   11840   11841   11833
CQUAD4   9502    1       11833   11841   11842   11831
CQUAD4   9503    1       11831   11842   11843   11832
CQUAD4   9504    1       11832   11843   11844   10407
$ ... 104 like lines cut
CTRIA3   9610    1       12000   11904   11905
CQUAD4   9611    1       11023   11657   11658   11084
CQUAD4   9612    1       11084   11658   11670   11145
CQUAD4   9613    1       11145   11670   11671   11206
CQUAD4   9614    1       11206   11671   11672   11267
CQUAD4   9615    1       11267   11672   11673   11328
CQUAD4   9616    1       11328   11673   11674   11389
CQUAD4   9617    1       11389   11674   11675   11450
CQUAD4   9618    1       11450   11675   11676   11511
CQUAD4   9619    1       11511   11676   11677   11572
CQUAD4   9620    1       11572   11677   10415   10414
CTRIA3   9621    1       11844   10408   10465
CQUAD4   9622    1       10407   11844   10465   10464
CQUAD4   9682    1       12065   12066   12123   12122
CQUAD4   9683    1       12066   12067   12124   12123
CQUAD4   9684    1       12067   12068   12125   12124
CQUAD4   9685    1       12068   12069   12126   12125
CQUAD4   9686    1       12069   12070   12127   12126
CQUAD4   9687    1       12070   12071   12128   12127
CQUAD4   9688    1       12071   12072   12129   12128
CQUAD4   9689    1       12072   12073   12130   12129
CQUAD4   9690    1       12073   12074   12131   12130
CQUAD4   9691    1       12074   12075   12133   12131
CQUAD4   9692    1       12075   12076   12132   12133
CQUAD4   9693    1       12076   12077   12134   12132
CQUAD4   9694    1       12077   12078   12135   12134
CQUAD4   9695    1       12078   12079   12136   12135
CQUAD4   9738    1       12122   12123   12180   12179
CQUAD4   9739    1       12123   12124   12182   12180
CQUAD4   9740    1       12124   12125   12183   12182
CQUAD4   9741    1       12125   12126   12181   12183
CQUAD4   9742    1       12126   12127   12184   12181
$ ... 381 like lines cut
CTRIA3   10451   1       3525    13077   13056
CQUAD4   10452   1       12005   12006   13201   13190
CQUAD4   10453   1       13190   13201   13202   13191
CQUAD4   10454   1       13191   13202   13203   13192
CQUAD4   10455   1       13192   13203   13204   13193
CQUAD4   10456   1       13193   13204   13205   13194
CQUAD4   10457   1       13194   13205   13206   13195
CQUAD4   10458   1       13195   13206   13207   13196
CQUAD4   10459   1       13196   13207   13208   13197
CQUAD4   10460   1       13197   13208   13209   13198
CQUAD4   10461   1       13198   13209   13210   13199
CQUAD4   10462   1       12006   12007   13223   13201
CQUAD4   10463   1       13201   13223   13224   13202
CQUAD4   10464   1       13202   13224   13225   13203
CQUAD4   10465   1       13203   13225   13226   13204
CQUAD4   10466   1       13204   13226   13227   13205
CQUAD4   10467   1       13205   13227   13228   13206
CQUAD4   10468   1       13206   13228   13229   13207
CQUAD4   10469   1       13207   13229   13230   13208
CQUAD4   10470   1       13208   13230   13231   13209
CQUAD4   10471   1       13209   13231   13232   13210
$ ... 278 like lines cut
CTRIA3   10771   1       13171   13421   13399
CQUAD4   10776   1       13886   13893   13894   13887
CQUAD4   10777   1       13887   13894   13900   13888
CQUAD4   10778   1       13888   13900   13924   13925
CQUAD4   10783   1       13893   13899   13901   13894
CQUAD4   10784   1       13894   13901   13912   13900
CQUAD4   10785   1       13900   13912   13923   13924
CQUAD4   10790   1       13899   13903   13907   13901
CQUAD4   10791   1       13901   13907   13913   13912
CQUAD4   10792   1       13912   13913   13922   13923
CQUAD4   10794   1       13927   13931   13932   13928
CQUAD4   10795   1       13928   13932   13933   13929
CQUAD4   10796   1       13929   13933   13937   13899
CQUAD4   10797   1       5560    5559    13935   13931
CQUAD4   10798   1       13931   13935   13936   13932
CQUAD4   10799   1       13932   13936   13937   13933
CQUAD4   10800   1       5560    13927   13945   5561
CQUAD4   10801   1       13927   13928   13946   13945
CQUAD4   10802   1       13928   13929   13947   13946
CQUAD4   10803   1       13929   13899   13893   13947
CQUAD4   10804   1       5561    13945   13955   5562
$ ... 19 like lines cut
CTRIA3   10827   1       5560    13931   13927
CQUAD4   10828   1       13199   13210   14025   14024
CQUAD4   10829   1       13210   13232   14026   14025
CQUAD4   10831   1       13276   13298   14028   14027
CQUAD4   10832   1       13298   13463   14029   14028
CQUAD4   10834   1       13353   13364   14031   14030
CQUAD4   10835   1       13364   13386   14032   14031
CQUAD4   10836   1       13386   13408   14033   14032
CQUAD4   10840   1       13529   13550   14037   14035
CQUAD4   10841   1       13550   13560   14038   14037
CQUAD4   10843   1       13593   13615   14040   14039
CQUAD4   10845   1       13659   13681   14042   14041
CQUAD4   10846   1       13681   13703   14043   14042
CQUAD4   10847   1       13703   13725   14044   14043
CQUAD4   10848   1       13725   13747   14045   14044
CQUAD4   10850   1       13791   13813   14047   14046
CQUAD4   10851   1       13813   13835   14048   14047
CTRIA3   10852   1       13615   13637   14040
CTRIA3   10853   1       13747   13769   14045
CQUAD4   10854   1       13637   13659   14041   14040
CQUAD4   10855   1       13769   13791   14046   14045
CQUAD4   10856   1       13430   13441   14034   14033
CTRIA3   10857   1       13408   13430   14033
CTRIA3   10858   1       13463   13474   14029
CQUAD4   10859   1       13474   13353   14030   14029
CQUAD4   10860   1       13254   13276   14027   14026
CTRIA3   10861   1       13232   13254   14026
CQUAD4   10862   1       13507   13529   14035   14051
CQUAD4   10863   1       13441   13507   14051   14034
CQUAD4   10864   1       13560   13582   14052   14038
CQUAD4   10865   1       13582   13593   14039   14052
CQUAD4   10866   1       14024   14025   11942   11931
CQUAD4   10867   1       14026   14027   11995   11973
CQUAD4   10868   1       14027   14028   11899   11995
CQUAD4   10869   1       14028   14029   11868   11899
CQUAD4   10870   1       14029   14030   11018   11878
CQUAD4   10871   1       14030   14031   11019   11018
CQUAD4   10872   1       14031   14032   11020   11019
CQUAD4   10873   1       14032   14033   11021   11020
CQUAD4   10874   1       14033   14034   11023   11022
CQUAD4   10875   1       14051   14035   11657   11023
CQUAD4   10876   1       14035   14037   11700   11657
CQUAD4   10878   1       14047   14048   11041   11042
CQUAD4   10879   1       14046   14047   11042   11043
CQUAD4   10880   1       14045   14046   11043   11044
CQUAD4   10881   1       14042   14043   11047   11048
CQUAD4   10882   1       14043   14044   11046   11047
CQUAD4   10883   1       14044   14045   11045   11046
CQUAD4   10884   1       14041   14042   11048   11049
CQUAD4   10885   1       14040   14041   11049   11032
CTRIA3   10887   1       14040   11032   11786
CTRIA3   10888   1       14045   11044   11045
CTRIA3   10889   1       14029   11878   11868
CTRIA3   10890   1       14033   11022   11021
CTRIA3   10891   1       14034   14051   11023
CTRIA3   10892   1       14025   11963   11942
CQUAD4   10893   1       14025   14026   11973   11963
CQUAD4   10896   1       14038   14055   14056   14053
CQUAD4   10897   1       14053   14056   11722   11711
CQUAD4   10898   1       14055   11743   11722   14056
CQUAD4   10899   1       14038   14052   14060   14055
CQUAD4   10900   1       14055   14060   14058   11743
CQUAD4   10901   1       14052   14039   14058   14060
CTRIA3   10902   1       14037   14038   14053
CTRIA3   10903   1       14039   14040   14058
CQUAD4   10904   1       14037   14053   11711   11700
CQUAD4   10905   1       14058   14040   11786   11743
CQUAD4   10906   1       14061   14069   14070   14062
CQUAD4   10907   1       14062   14070   14071   14063
CQUAD4   10908   1       14063   14071   14072   14064
CQUAD4   10909   1       14064   14072   14073   14065
CQUAD4   10910   1       14065   14073   14074   14066
CQUAD4   10911   1       14066   14074   14075   14067
CQUAD4   10912   1       14067   14075   14076   14068
CQUAD4   10913   1       14069   14077   14078   14070
CQUAD4   10914   1       14070   14078   14079   14071
CQUAD4   10915   1       14071   14079   14080   14072
CQUAD4   10916   1       14072   14080   14081   14073
CQUAD4   10917   1       14073   14081   14082   14074
CQUAD4   10918   1       14074   14082   14083   14075
CQUAD4   10919   1       14075   14083   14084   14076
CQUAD4   10920   1       14077   14085   14086   14078
CQUAD4   10921   1       14078   14086   14087   14079
CQUAD4   10922   1       14079   14087   14088   14080
CQUAD4   10923   1       14080   14088   14089   14081
$ ... 1464 like lines cut
CTRIA3   12388   1       15420   15437   15438
CTRIA3   12389   1       15408   15431   15432
CQUAD4   12390   1       15412   15638   15649   15413
CQUAD4   12391   1       15638   15639   15650   15649
CQUAD4   12392   1       15639   15640   15651   15650
CQUAD4   12393   1       15640   15641   15652   15651
CQUAD4   12394   1       15641   15642   15653   15652
CQUAD4   12395   1       15642   15643   15654   15653
CQUAD4   12396   1       15643   15644   15655   15654
CQUAD4   12397   1       15644   15645   15656   15655
CQUAD4   12398   1       15645   15646   15657   15656
CQUAD4   12399   1       15646   15647   15648   15657
CQUAD4   12400   1       15181   15200   15201   15182
CTRIA3   12401   1       15182   15201   15202
CTRIA3   12402   1       15185   15205   15206
CTRIA3   12403   1       15190   15211   15212
CTRIA3   12404   1       15194   15216   15217
CTRIA3   12405   1       14998   15016   15017
CTRIA3   12406   1       14819   14836   14837
CTRIA3   12407   1       14647   14669   14670
CQUAD4   12408   1       14647   14670   14671   14646
CTRIA3   12409   1       14653   14662   14663
CTRIA3   12410   1       14506   14521   14520
CTRIA3   12411   1       14357   14380   14379
CTRIA3   12412   1       14363   14373   14372
CTRIA3   12413   1       14241   14254   14255
CTRIA3   12414   1       14135   14146   14145
CTRIA3   12415   1       14131   14141   14140
CTRIA3   12416   1       14087   14099   14098
CQUAD4   12417   1       15678   15679   15685   15684
CQUAD4   12418   1       15679   15680   15686   15685
CQUAD4   12419   1       15680   15681   15687   15686
CQUAD4   12420   1       15681   15682   15688   15687
CQUAD4   12421   1       15682   15683   15689   15688
CQUAD4   12422   1       15684   15685   14065   14066
CQUAD4   12423   1       15685   15686   14064   14065
CQUAD4   12424   1       15686   15687   14063   14064
CQUAD4   12425   1       15687   15688   14062   14063
CQUAD4   12426   1       15688   15689   14061   14062
CQUAD4   12427   1       15678   15684   15691   15690
CQUAD4   12428   1       15684   14066   14067   15691
CQUAD4   12429   1       15690   15691   14067   14068
CQUAD4   12430   1       15692   15693   15700   15699
CQUAD4   12431   1       15693   15694   15701   15700
CQUAD4   12432   1       15694   15695   15702   15701
CQUAD4   12433   1       15695   15696   15703   15702
CQUAD4   12434   1       15696   15697   15704   15703
CQUAD4   12435   1       15697   15698   15705   15704
CQUAD4   12436   1       15699   15700   15707   15706
$ ... 299 like lines cut
CTRIA3   12736   1       16078   16051   16084
CTRIA3   12737   1       16070   16072   16069
CQUAD4   12738   1       16052   16054   16086   16085
CQUAD4   12739   1       16054   16057   16087   16086
CQUAD4   12740   1       16057   16060   16088   16087
CQUAD4   12741   1       16060   16063   16089   16088
CQUAD4   12742   1       16063   16066   16090   16089
CQUAD4   12743   1       16066   16069   16091   16090
CQUAD4   12744   1       16069   16072   16092   16091
CQUAD4   12745   1       16072   16079   16093   16092
CQUAD4   12746   1       16079   16080   16094   16093
CQUAD4   12747   1       16080   16081   16095   16094
CQUAD4   12748   1       16081   16082   16096   16095
CQUAD4   12749   1       16082   16083   16097   16096
CQUAD4   12750   1       16083   16084   16098   16097
CQUAD4   12751   1       16084   16051   16099   16098
CQUAD4   12752   1       16085   16086   16101   16100
CQUAD4   12753   1       16086   16087   16102   16101
CQUAD4   12754   1       16087   16088   16103   16102
CQUAD4   12755   1       16088   16089   16104   16103
CQUAD4   12756   1       16089   16090   16105   16104
CQUAD4   12757   1       16090   16091   16106   16105
$ ... 112 like lines cut
CTRIA3   12870   1       16183   16184   16190
CQUAD4   12871   1       16050   16191   15730   15716
CQUAD4   12872   1       16191   16192   15743   15730
CQUAD4   12873   1       16192   16193   15756   15743
CQUAD4   12874   1       16193   16194   15769   15756
CQUAD4   12875   1       16194   16195   15782   15769
CQUAD4   12876   1       16195   16196   15795   15782
CQUAD4   12877   1       16196   16197   15808   15795
CQUAD4   12878   1       15821   16229   16231   15820
CQUAD4   12879   1       16229   16230   16202   16231
CQUAD4   12880   1       15819   16232   16233   15818
CQUAD4   12881   1       16232   16202   16234   16233
CQUAD4   12882   1       15818   16233   16235   15817
CQUAD4   12883   1       16233   16234   16236   16235
CQUAD4   12884   1       15817   16235   16237   16156
CQUAD4   12885   1       16235   16236   16201   16237
CQUAD4   12886   1       16163   16238   16239   16170
CQUAD4   12887   1       16238   16201   16200   16239
CQUAD4   12888   1       16177   16240   16241   16184
CQUAD4   12889   1       16240   16200   16242   16241
CQUAD4   12890   1       16184   16241   16243   16197
$ ... 20 like lines cut
CTRIA3   12911   1       16249   16198   16250
CTRIA3   12912   1       16243   16199   16244
CTRIA3   12913   1       16237   16201   16238
CTRIA3   12914   1       16239   16200   16240
CTRIA3   12915   1       16231   16202   16232
CQUAD4   12916   1       16230   16259   16260   16202
CQUAD4   12917   1       16259   16216   16215   16260
CQUAD4   12918   1       16234   16261   16262   16236
CQUAD4   12919   1       16261   16215   16214   16262
CQUAD4   12920   1       16236   16262   16263   16201
CQUAD4   12921   1       16262   16214   16213   16263
CQUAD4   12922   1       16201   16263   16264   16200
CQUAD4   12923   1       16263   16213   16212   16264
CQUAD4   12924   1       16242   16266   16267   16199
CQUAD4   12925   1       16266   16211   16210   16267
CQUAD4   12926   1       16199   16267   16268   16246
CQUAD4   12927   1       16267   16210   16204   16268
CQUAD4   12928   1       16246   16268   16269   16248
CQUAD4   12929   1       16268   16204   16205   16269
CQUAD4   12930   1       16248   16269   16270   16198
CQUAD4   12931   1       16269   16205   16206   16270
CQUAD4   12932   1       16252   16271   16272   16254
CQUAD4   12933   1       16271   16206   16207   16272
CQUAD4   12934   1       16254   16272   16273   16256
CQUAD4   12935   1       16272   16207   16203   16273
CQUAD4   12936   1       16256   16273   16274   16258
CQUAD4   12937   1       16273   16203   16208   16274
CTRIA3   12938   1       16260   16215   16261
CTRIA3   12939   1       16242   16265   16266
CTRIA3   12940   1       16270   16206   16271
CQUAD4   12941   1       16202   16260   16261   16234
CQUAD4   12942   1       16265   16209   16211   16266
CQUAD4   12943   1       16198   16270   16271   16252
CQUAD4   12944   1       16222   16275   16276   16217
CQUAD4   12945   1       16275   15692   15713   16276
CQUAD4   12946   1       16221   16277   16275   16222
CQUAD4   12947   1       16277   15693   15692   16275
CQUAD4   12948   1       16223   16278   16279   16218
CQUAD4   12949   1       16278   15695   15694   16279
CQUAD4   12950   1       16224   16280   16278   16223
CQUAD4   12951   1       16280   15696   15695   16278
CQUAD4   12952   1       16226   16281   16282   16225
CQUAD4   12953   1       16281   15697   15696   16282
CQUAD4   12954   1       16228   16283   16284   16227
CQUAD4   12955   1       16283   15698   15697   16284
CQUAD4   12956   1       16227   16284   16281   16226
CQUAD4   12957   1       16218   16279   16285   16219
CQUAD4   12958   1       16285   15694   15693   16286
CTRIA3   12959   1       16219   16285   16286
CTRIA3   12960   1       16279   15694   16285
CTRIA3   12961   1       16284   15697   16281
CQUAD4   12962   1       16225   16282   16288   16287
CQUAD4   12963   1       16282   15696   16280   16288
CQUAD4   12964   1       16287   16288   16280   16224
CQUAD4   12965   1       16219   16286   16289   16220
CQUAD4   12966   1       16286   15693   16277   16289
CQUAD4   12967   1       16220   16289   16277   16221
CQUAD4   12968   1       16200   16264   16265   16242
CQUAD4   12969   1       16264   16212   16209   16265
CQUAD4   12970   1       15726   15739   16144   15725
CQUAD4   12971   1       15739   15752   16145   16144
CQUAD4   12972   1       15752   15765   16146   16145
CQUAD4   12973   1       15765   15778   16147   16146
CQUAD4   12974   1       15778   15791   16148   16147
CQUAD4   12975   1       15791   15804   16149   16148
CQUAD4   12976   1       15804   15818   15817   16149
CQUAD4   12977   1       16216   16290   16291   16215
CQUAD4   12978   1       16290   16228   16227   16291
CQUAD4   12979   1       16215   16291   16292   16214
CQUAD4   12980   1       16291   16227   16226   16292
CQUAD4   12981   1       16214   16292   16293   16213
$ ... 20 like lines cut
CTRIA3   13002   1       16211   16296   16297
CTRIA3   13003   1       16300   16221   16301
CTRIA3   13004   1       16302   16222   16303
CQUAD4   13005   1       16305   16326   16327   16306
CQUAD4   13006   1       16306   16327   16328   16307
CQUAD4   13007   1       16307   16328   16329   16308
CQUAD4   13008   1       16308   16329   16330   16309
CQUAD4   13009   1       16309   16330   16331   16310
CQUAD4   13010   1       16310   16331   16332   16311
CQUAD4   13011   1       16311   16332   16333   16312
CQUAD4   13012   1       16314   16334   16335   16315
CQUAD4   13013   1       16315   16335   16344   16324
CQUAD4   13014   1       16324   16344   16343   16323
CQUAD4   13015   1       16323   16343   16342   16322
CQUAD4   13016   1       16322   16342   16341   16321
CQUAD4   13017   1       16321   16341   16340   16320
CQUAD4   13018   1       16320   16340   16339   16319
CQUAD4   13019   1       16319   16339   16338   16318
CQUAD4   13020   1       16318   16338   16337   16317
CQUAD4   13021   1       16317   16337   16336   16316
CQUAD4   13022   1       16316   16336   16345   16325
CQUAD4   13023   1       16326   16346   16347   16327
CQUAD4   13024   1       16327   16347   16348   16328
$ ... 386 like lines cut
CTRIA3   13411   1       16651   16052   16669
CQUAD4   13412   1       16751   16752   16758   16603
CQUAD4   13413   1       16752   16753   16759   16758
CQUAD4   13414   1       16753   16754   16760   16759
CQUAD4   13415   1       16754   16755   16761   16760
CQUAD4   13416   1       16755   16756   16762   16761
CQUAD4   13417   1       16756   16757   16763   16762
CQUAD4   13418   1       16758   16759   16765   16764
CQUAD4   13419   1       16759   16760   16766   16765
CQUAD4   13420   1       16760   16761   16767   16766
CQUAD4   13421   1       16761   16762   16768   16767
CQUAD4   13422   1       16762   16763   16769   16768
CQUAD4   13423   1       16763   16652   16653   16769
CQUAD4   13424   1       16603   16764   16771   16770
CQUAD4   13425   1       16764   16765   16772   16771
CQUAD4   13426   1       16765   16766   16773   16772
CQUAD4   13427   1       16766   16767   16774   16773
CQUAD4   13428   1       16767   16768   16775   16774
CQUAD4   13429   1       16768   16769   16776   16775
CQUAD4   13430   1       16770   16771   16778   16777
CQUAD4   13431   1       16771   16772   16779   16778
$ ... 5 like lines cut
CTRIA3   13437   1       16757   16652   16763
CTRIA3   13438   1       16769   16653   16776
CTRIA3   13439   1       16603   16758   16764
CQUAD4   13440   1       16784   16785   16752   16751
CQUAD4   13441   1       16785   16786   16753   16752
CQUAD4   13442   1       16786   16787   16754   16753
CQUAD4   13443   1       16787   16788   16755   16754
CQUAD4   13444   1       16788   16789   16756   16755
CQUAD4   13445   1       16789   16790   16757   16756
CQUAD4   13446   1       16790   16454   16652   16757
CQUAD4   13447   1       16313   16791   16785   16784
CQUAD4   13448   1       16791   16792   16786   16785
CQUAD4   13449   1       16792   16793   16787   16786
CQUAD4   13450   1       16793   16794   16788   16787
CQUAD4   13451   1       16794   16795   16789   16788
CQUAD4   13452   1       16795   16796   16790   16789
CTRIA3   13453   1       16796   16454   16790
CQUAD4   13454   1       16797   16819   16820   16798
CQUAD4   13455   1       16798   16820   16821   16799
CQUAD4   13456   1       16799   16821   16822   16800
CQUAD4   13457   1       16800   16822   16823   16801
CQUAD4   13458   1       16801   16823   16824   16802
CQUAD4   13459   1       16802   16824   16825   16803
CQUAD4   13460   1       16803   16825   16826   16804
CQUAD4   13461   1       16804   16826   16827   16805
CQUAD4   13462   1       16805   16827   16828   16806
CQUAD4   13463   1       16807   16829   16830   16808
CQUAD4   13464   1       16808   16830   16839   16817
CQUAD4   13465   1       16817   16839   16838   16816
CQUAD4   13466   1       16816   16838   16837   16815
CQUAD4   13467   1       16815   16837   16836   16814
CQUAD4   13468   1       16814   16836   16835   16813
CQUAD4   13469   1       16813   16835   16834   16812
CQUAD4   13470   1       16812   16834   16833   16811
CQUAD4   13471   1       16811   16833   16832   16810
CQUAD4   13472   1       16810   16832   16831   16809
CQUAD4   13473   1       16809   16831   16840   16818
$ ... 197 like lines cut
CTRIA3   13671   1       16938   16951   17031
CQUAD4   13672   1       16806   16828   17026   16997
CQUAD4   13673   1       16828   16850   17027   17026
CQUAD4   13674   1       16850   16872   17028   17027
CQUAD4   13675   1       16872   16894   17029   17028
CQUAD4   13676   1       16894   16916   17030   17029
CQUAD4   13677   1       16916   16938   17031   17030
CQUAD4   13678   1       16494   16514   16953   16495
CQUAD4   13679   1       16514   16533   16954   16953
CQUAD4   13680   1       16533   16552   16955   16954
CQUAD4   13681   1       16552   16571   16956   16955
CQUAD4   13682   1       16571   16590   16591   16956
CQUAD4   13683   1       16590   16312   16313   16591
CQUAD4   13684   1       16312   16333   16791   16313
CQUAD4   13685   1       16333   16353   16792   16791
CQUAD4   13686   1       16353   16373   16793   16792
CQUAD4   13687   1       16373   16393   16794   16793
CQUAD4   13688   1       16393   16413   16795   16794
CQUAD4   13689   1       16413   16433   16796   16795
CQUAD4   13690   1       16453   16454   16796   16433
CQUAD4   13691   1       16952   16991   16496   16476
$ ... 201 like lines cut
CTRIA3   13893   1       17150   16808   17157
CQUAD4   13894   1       17228   17250   17251   17229
CQUAD4   13895   1       17229   17251   17252   17230
CQUAD4   13896   1       17230   17252   17253   17231
CQUAD4   13897   1       17231   17253   17254   17232
CQUAD4   13898   1       17232   17254   17255   17233
CQUAD4   13899   1       17233   17255   17256   17234
CQUAD4   13900   1       17234   17256   17257   17235
CQUAD4   13901   1       17235   17257   17258   17236
CQUAD4   13902   1       17238   17259   17260   17239
CQUAD4   13903   1       17239   17260   17270   17240
CQUAD4   13904   1       17240   17270   17269   17241
CQUAD4   13905   1       17241   17269   17268   17249
CQUAD4   13906   1       17249   17268   17267   17248
CQUAD4   13907   1       17248   17267   17266   17247
CQUAD4   13908   1       17247   17266   17265   17246
CQUAD4   13909   1       17246   17265   17264   17245
CQUAD4   13910   1       17245   17264   17263   17244
CQUAD4   13911   1       17244   17263   17262   17243
CQUAD4   13912   1       17243   17262   17261   17242
CQUAD4   13913   1       17250   17271   17272   17251
$ ... 212 like lines cut
CTRIA3   14126   1       17282   17365   17371
CTRIA3   14127   1       17406   17151   17412
CQUAD4   14128   1       17473   17496   17497   17474
CQUAD4   14129   1       17474   17497   17498   17475
CQUAD4   14130   1       17475   17498   17499   17476
CQUAD4   14131   1       17476   17499   17500   17477
CQUAD4   14132   1       17477   17500   17501   17478
CQUAD4   14133   1       17478   17501   17502   17479
CQUAD4   14134   1       17479   17502   17503   17480
CQUAD4   14135   1       17480   17503   17504   17481
CQUAD4   14136   1       17481   17504   17505   17482
CQUAD4   14137   1       17482   17505   17506   17483
CQUAD4   14138   1       17484   17507   17508   17485
CQUAD4   14139   1       17485   17508   17518   17495
CQUAD4   14140   1       17495   17518   17517   17486
CQUAD4   14141   1       17486   17517   17516   17494
CQUAD4   14142   1       17494   17516   17515   17493
CQUAD4   14143   1       17493   17515   17514   17492
CQUAD4   14144   1       17492   17514   17513   17491
CQUAD4   14145   1       17491   17513   17512   17490
CQUAD4   14146   1       17490   17512   17511   17489
CQUAD4   14147   1       17489   17511   17510   17488
$ ... 302 like lines cut
CTRIA3   14450   1       17817   17521   17809
CTRIA3   14451   1       17817   17284   17816
CQUAD4   14452   1       17809   17282   17284   17817
CQUAD4   14453   1       17521   17817   17816   17520
CQUAD4   14454   1       17805   17819   17818   17806
CQUAD4   14455   1       17819   17812   17810   17818
CQUAD4   14456   1       17804   17820   17819   17805
CQUAD4   14457   1       17820   17814   17812   17819
CQUAD4   14458   1       17803   17821   17820   17804
CQUAD4   14459   1       17821   17520   17814   17820
CQUAD4   14460   1       17802   17822   17821   17803
CQUAD4   14461   1       17822   17521   17520   17821
CQUAD4   14462   1       17483   17506   17822   17802
CQUAD4   14463   1       17506   17519   17521   17822
CQUAD4   14464   1       17823   17852   17853   17824
CQUAD4   14465   1       17824   17853   17854   17825
CQUAD4   14466   1       17825   17854   17855   17826
CQUAD4   14467   1       17826   17855   17856   17827
CQUAD4   14468   1       17828   17857   17858   17829
CQUAD4   14469   1       17829   17858   17859   17830
CQUAD4   14470   1       17830   17859   17860   17831
CQUAD4   14471   1       17831   17860   17861   17832
$ ... 410 like lines cut
CTRIA3   14882   1       18100   17538   18101
CQUAD4   14883   1       17236   17258   17807   17237
CQUAD4   14884   1       17258   17279   17280   17807
CQUAD4   14885   1       17806   17818   17507   17484
CQUAD4   14886   1       17818   17810   17238   17507
CQUAD4   14887   1       17810   17811   17259   17238
CQUAD4   14888   1       17811   17286   17287   17259
CQUAD4   14889   1       18274   18275   18284   18283
CQUAD4   14890   1       18275   18276   18285   18284
CQUAD4   14891   1       18276   18277   18286   18285
CQUAD4   14892   1       18277   18278   18287   18286
CQUAD4   14893   1       18278   18279   18288   18287
CQUAD4   14894   1       18279   18280   18289   18288
CQUAD4   14895   1       18280   18281   18290   18289
CQUAD4   14896   1       18281   18282   18291   18290
CQUAD4   14897   1       18282   17835   17836   18291
CQUAD4   14898   1       18273   18283   18293   18292
CQUAD4   14899   1       18283   18284   18294   18293
CQUAD4   14900   1       18284   18285   18295   18294
CQUAD4   14901   1       18285   18286   18296   18295
CQUAD4   14902   1       18286   18287   18297   18296
$ ... 63 like lines cut
CTRIA3   14966   1       18273   18274   18283
CTRIA3   14967   1       18321   17839   18331
CTRIA3   14968   1       18322   18323   18332
CQUAD4   14969   1       18113   18351   18374   18129
CQUAD4   14970   1       18351   18352   18367   18374
CQUAD4   14971   1       18352   18353   18366   18367
CQUAD4   14972   1       18353   18354   18365   18366
CQUAD4   14973   1       18354   18355   18364   18365
CQUAD4   14974   1       18355   18356   18363   18364
CQUAD4   14975   1       18356   18357   18362   18363
CQUAD4   14976   1       18357   18358   18360   18362
CQUAD4   14977   1       18358   18359   18361   18360
CQUAD4   14978   1       18359   17826   17827   18361
CQUAD4   14979   1       18129   18374   18378   18145
CQUAD4   14980   1       18374   18367   18375   18378
CQUAD4   14981   1       18367   18366   18376   18375
CQUAD4   14982   1       18366   18365   18377   18376
CQUAD4   14983   1       18365   18364   18368   18377
CQUAD4   14984   1       18364   18363   18369   18368
CQUAD4   14985   1       18363   18362   18370   18369
CQUAD4   14986   1       18362   18360   18371   18370
CQUAD4   14987   1       18360   18361   18372   18371
CQUAD4   14988   1       18361   17827   18373   18372
$ ... 104 like lines cut
CTRIA3   15093   1       18472   18412   18411
CQUAD4   15094   1       18118   18134   18274   18273
CQUAD4   15095   1       18134   18150   18275   18274
CQUAD4   15096   1       18150   18166   18276   18275
CQUAD4   15097   1       18166   18182   18277   18276
CQUAD4   15098   1       18182   18198   18278   18277
CQUAD4   15099   1       18198   18214   18279   18278
CQUAD4   15100   1       18214   18230   18280   18279
CQUAD4   15101   1       18230   18246   18281   18280
CQUAD4   15102   1       18246   18262   18282   18281
CQUAD4   15103   1       18262   17834   17835   18282
CTRIA3   15104   1       18373   17857   17828
CQUAD4   15105   1       17827   17856   17857   18373
CQUAD4   15106   1       15606   18501   18510   15607
CQUAD4   15107   1       18501   18502   18511   18510
CQUAD4   15108   1       18502   18503   18512   18511
CQUAD4   15109   1       18503   18504   18513   18512
CQUAD4   15110   1       18504   18505   18514   18513
CQUAD4   15111   1       18505   18506   18515   18514
CQUAD4   15112   1       18506   18507   18516   18515
CQUAD4   15113   1       18507   18508   18517   18516
CQUAD4   15114   1       18508   18509   18518   18517
CQUAD4   15115   1       18509   18499   18500   18518
CQUAD4   15116   1       15605   18519   18501   15606
CQUAD4   15117   1       18519   18520   18502   18501
CQUAD4   15118   1       18520   18521   18503   18502
CQUAD4   15119   1       18521   18522   18504   18503
CQUAD4   15120   1       18522   18523   18505   18504
CQUAD4   15121   1       18523   18524   18506   18505
CQUAD4   15122   1       18524   18525   18507   18506
CQUAD4   15123   1       18525   18526   18508   18507
CQUAD4   15124   1       18526   18527   18509   18508
$ ... 270 like lines cut
CTRIA3   15395   1       15647   18699   18708
CQUAD4   15396   1       18477   18778   18788   18478
CQUAD4   15397   1       18778   18779   18789   18788
CQUAD4   15398   1       18779   18780   18790   18789
CQUAD4   15399   1       18780   18781   18791   18790
CQUAD4   15400   1       18781   18782   18792   18791
CQUAD4   15401   1       18782   18783   18793   18792
CQUAD4   15402   1       18783   18784   18794   18793
CQUAD4   15403   1       18784   18785   18795   18794
CQUAD4   15404   1       18785   18786   18796   18795
CQUAD4   15405   1       18786   18787   18797   18796
CQUAD4   15406   1       18478   18788   18798   18479
CQUAD4   15407   1       18788   18789   18799   18798
CQUAD4   15408   1       18789   18790   18800   18799
CQUAD4   15409   1       18790   18791   18801   18800
CQUAD4   15410   1       18791   18792   18802   18801
CQUAD4   15411   1       18792   18793   18803   18802
CQUAD4   15412   1       18793   18794   18804   18803
CQUAD4   15413   1       18794   18795   18805   18804
CQUAD4   15414   1       18795   18796   18806   18805
CQUAD4   15415   1       18796   18797   18807   18806
$ ... 278 like lines cut
CTRIA3   15694   1       18774   18868   18878
CQUAD4   15695   1       19088   19089   19092   19091
CQUAD4   15696   1       19089   19090   19094   19092
CQUAD4   15697   1       19090   19103   19102   19094
CQUAD4   15698   1       19091   19092   19095   19093
CQUAD4   15699   1       19092   19094   19098   19095
CQUAD4   15700   1       19094   19102   19101   19098
CQUAD4   15701   1       19093   19095   19097   19096
CQUAD4   15702   1       19095   19098   19099   19097
CQUAD4   15703   1       19098   19101   19100   19099
CQUAD4   15704   1       19104   19105   19108   19107
CQUAD4   15705   1       19105   19106   19109   19108
CQUAD4   15706   1       19106   19093   19112   19109
CQUAD4   15707   1       15710   19107   19110   15709
CQUAD4   15708   1       19107   19108   19111   19110
CQUAD4   15709   1       19108   19109   19112   19111
CQUAD4   15710   1       15710   15711   19113   19104
CQUAD4   15711   1       19104   19113   19114   19105
CQUAD4   15712   1       19105   19114   19115   19106
CQUAD4   15713   1       19106   19115   19091   19093
CQUAD4   15714   1       15711   15712   19116   19113
$ ... 19 like lines cut
CTRIA3   15734   1       15710   19104   19107
CQUAD4   15735   1       18787   19131   19132   18797
CQUAD4   15736   1       18797   19132   19133   18807
CQUAD4   15737   1       18827   19134   19135   18837
CQUAD4   15738   1       18837   19135   19136   18907
CQUAD4   15739   1       18847   19137   19138   18857
CQUAD4   15740   1       18857   19138   19139   18867
CQUAD4   15741   1       18867   19139   19140   18877
CQUAD4   15742   1       18937   19142   19143   18947
CQUAD4   15743   1       18947   19143   19144   18957
CQUAD4   15744   1       18977   19145   19146   18987
CQUAD4   15745   1       19007   19147   19148   19017
CQUAD4   15746   1       19017   19148   19149   19027
CQUAD4   15747   1       19027   19149   19150   19037
CQUAD4   15748   1       19037   19150   19151   19047
CQUAD4   15749   1       19067   19152   19153   19077
CQUAD4   15750   1       19077   19153   19154   19087
CTRIA3   15751   1       18987   19146   18997
CTRIA3   15752   1       19047   19151   19057
CQUAD4   15753   1       18997   19146   19147   19007
CQUAD4   15754   1       19057   19151   19152   19067
CQUAD4   15755   1       18887   19140   19141   18897
CTRIA3   15756   1       18877   19140   18887
CTRIA3   15757   1       18907   19136   18917
CQUAD4   15758   1       18917   19136   19137   18847
CQUAD4   15759   1       18817   19133   19134   18827
CTRIA3   15760   1       18807   19133   18817
CQUAD4   15761   1       18927   19155   19142   18937
CQUAD4   15762   1       18897   19141   19155   18927
CQUAD4   15763   1       18957   19144   19156   18967
CQUAD4   15764   1       18967   19156   19145   18977
CQUAD4   15765   1       19131   18427   18437   19132
CQUAD4   15766   1       19133   18457   18467   19134
CQUAD4   15767   1       19134   18467   18406   19135
CQUAD4   15768   1       19135   18406   18386   19136
CQUAD4   15769   1       19136   18396   18113   19137
CQUAD4   15770   1       19137   18113   18114   19138
CQUAD4   15771   1       19138   18114   18115   19139
CQUAD4   15772   1       19139   18115   18116   19140
CQUAD4   15773   1       19140   18117   18118   19141
CQUAD4   15774   1       19155   18118   18273   19142
CQUAD4   15775   1       19142   18273   18292   19143
CQUAD4   15776   1       19153   18121   18120   19154
CQUAD4   15777   1       19152   18122   18121   19153
CQUAD4   15778   1       19151   18123   18122   19152
CQUAD4   15779   1       19148   18127   18126   19149
CQUAD4   15780   1       19149   18126   18125   19150
CQUAD4   15781   1       19150   18125   18124   19151
CQUAD4   15782   1       19147   18128   18127   19148
CQUAD4   15783   1       19146   18119   18128   19147
CTRIA3   15784   1       19146   18341   18119
CTRIA3   15785   1       19151   18124   18123
CTRIA3   15786   1       19136   18386   18396
CTRIA3   15787   1       19140   18116   18117
CTRIA3   15788   1       19141   18118   19155
CTRIA3   15789   1       19132   18437   18447
CQUAD4   15790   1       19132   18447   18457   19133
CQUAD4   15791   1       19144   19157   19159   19158
CQUAD4   15792   1       19157   18302   18312   19159
CQUAD4   15793   1       19158   19159   18312   18322
CQUAD4   15794   1       19144   19158   19161   19156
CQUAD4   15795   1       19158   18322   19160   19161
CQUAD4   15796   1       19156   19161   19160   19145
CTRIA3   15797   1       19143   19157   19144
CTRIA3   15798   1       19145   19160   19146
CQUAD4   15799   1       19143   18292   18302   19157
CQUAD4   15800   1       19160   18322   18341   19146
$ Referenced Material Records
$ Material Record : steel
$ Description of Material : Date: 27-Apr-23           Time: 15:44:09
MAT1     1      1.              .3      1.
$ Nodes of the Entire Model
GRID     1              300.    340.78822900.
GRID     2              300.    292.55242772.179
GRID     3              300.    249.91932642.384
GRID     4              300.    212.81322510.9
GRID     5              300.    180.56112378.139
GRID     6              300.    151.86792244.563
GRID     7              300.    75.932612220.369
GRID     8              300.    8.5596-52196.166
GRID     16             450.    409.17192900.
GRID     17             450.    360.79882763.708
GRID     18             450.    316.31672626.025
GRID     19             450.    275.68072487.115
GRID     20             450.    238.35922347.248
GRID     21             450.    191.443 2249.942
GRID     22             450.    95.590812214.587
GRID     23             450.    6.8394-62179.341
GRID     31             600.    477.55552900.
GRID     32             600.    429.24672755.264
GRID     33             600.    382.56072609.921
GRID     34             600.    337.56052464.013
$ ... 10318 like lines cut
$ Loads for Load Case : Default
$ Referenced Coordinate Frames
ENDDATA f5f0a725
