$ NASTRAN input file created by the MSC MSC.Nastran input file
$ translator ( MSC.Patran 13.1.084 ) on September 25, 2017 at 13:39:42.
ASSIGN DBC='unsymmetry_tri2.xdb', RECL=65536
$ Direct Text Input for Nastran System Cell Section
$ Direct Text Input for File Management Section
$ Linear Static Analysis, Database
SOL 101
$ Direct Text Input for Executive Control
CEND
TITLE = MSC.Nastran job created on 22-Sep-17 at 15:53:51
ECHO = NONE
$ Direct Text Input for Global Case Control Data
SUBCASE 1
$ Subcase name : Default
   SUBTITLE=Default
   DISPLACEMENT(SORT1,REAL)=ALL
   SPCFORCES(SORT1,REAL)=ALL
   STRESS(SORT1,REAL,VONMISES,BILIN)=ALL
$ Direct Text Input for this Subcase
BEGIN BULK
PARAM    POST    0
PARAM   PRTMAXIM YES
$ Direct Text Input for Bulk Data
$ Elements and Element Properties for region : shell
PSHELL   1       1      10.      1               1
$ Pset: "shell" will be imported as: "pshell.1"
CQUAD4   1081    1       1451    1453    1462    1458
CTRIA3   1097    1       1481    1472    1471
CQUAD4   1098    1       1       11      1496    1486
CQUAD4   1099    1       1486    1496    1497    1487
CQUAD4   1100    1       1487    1497    1498    1488
CQUAD4   1101    1       1488    1498    1499    1489
CQUAD4   1102    1       1489    1499    1500    1490
CQUAD4   1103    1       1490    1500    1501    1491
CQUAD4   1104    1       1491    1501    1502    1492
CQUAD4   1105    1       1492    1502    1503    1493
CQUAD4   1106    1       1493    1503    1504    1494
CQUAD4   1107    1       11      21      1506    1496
CQUAD4   1108    1       1496    1506    1507    1497
CQUAD4   1109    1       1497    1507    1508    1498
CQUAD4   1110    1       1498    1508    1509    1499
CQUAD4   1111    1       1499    1509    1510    1500
CQUAD4   1112    1       1500    1510    1511    1501
CQUAD4   1113    1       1501    1511    1512    1502
CQUAD4   1114    1       1502    1512    1513    1503
CQUAD4   1115    1       1503    1513    1514    1504
CQUAD4   1116    1       21      31      1516    1506
CQUAD4   1117    1       1506    1516    1517    1507
$ ... 788 like lines cut
CTRIA3   1907    1       1076    2552    2542
CQUAD4   1908    1       2545    2546    2565    2564
CQUAD4   1909    1       2546    2547    2566    2565
CQUAD4   1910    1       2547    2548    2567    2566
CQUAD4   1911    1       2548    2549    2568    2567
CQUAD4   1912    1       2549    2550    2569    2568
CQUAD4   1913    1       2550    2551    2570    2569
CQUAD4   1914    1       2551    2552    2571    2570
CQUAD4   1915    1       2552    1076    1105    2571
CQUAD4   1917    1       2564    2565    2575    2574
CQUAD4   1918    1       2565    2566    2576    2575
CQUAD4   1919    1       2566    2567    2577    2576
CQUAD4   1920    1       2567    2568    2578    2577
CQUAD4   1921    1       2568    2569    2579    2578
CQUAD4   1922    1       2569    2570    2580    2579
CQUAD4   1923    1       2570    2571    2581    2580
CQUAD4   1924    1       2571    1105    1115    2581
CQUAD4   1926    1       2574    2575    2585    2584
CQUAD4   1927    1       2575    2576    2586    2585
CQUAD4   1928    1       2576    2577    2587    2586
CQUAD4   1929    1       2577    2578    2588    2587
$ ... 168 like lines cut
CTRIA3   2119    1       2827    2829    2838
CQUAD4   2120    1       2829    2830    2839    2838
CQUAD4   2121    1       2830    2831    2840    2839
CQUAD4   2122    1       2831    2832    2841    2840
CQUAD4   2124    1       2834    2835    2854    2856
CQUAD4   2125    1       2835    2836    2852    2854
CQUAD4   2126    1       2836    2837    2853    2852
CQUAD4   2127    1       2837    2838    2855    2853
CQUAD4   2128    1       2838    2839    2857    2855
CQUAD4   2129    1       2839    2840    2859    2857
CQUAD4   2130    1       2840    2841    2860    2859
CQUAD4   2132    1       2856    2854    2863    2866
CQUAD4   2133    1       2854    2852    2861    2863
CQUAD4   2134    1       2852    2853    2862    2861
CQUAD4   2135    1       2853    2855    2864    2862
CQUAD4   2136    1       2855    2857    2865    2864
CQUAD4   2137    1       2857    2859    2867    2865
CQUAD4   2138    1       2859    2860    2869    2867
CQUAD4   2139    1       2860    2869    2868    2858
CQUAD4   2140    1       2866    2863    2871    2870
CQUAD4   2141    1       2863    2861    2872    2871
CQUAD4   2142    1       2861    2862    2873    2872
CTRIA3   2143    1       2862    2864    2873
CQUAD4   2144    1       2864    2865    2874    2873
CQUAD4   2145    1       2865    2867    2875    2874
CQUAD4   2146    1       2867    2869    2876    2875
CQUAD4   2147    1       2869    2876    2877    2868
CQUAD4   2148    1       2870    2871    2887    2886
CQUAD4   2149    1       2871    2872    2888    2887
CQUAD4   2150    1       2872    2873    2889    2888
CTRIA3   2151    1       2873    2874    2889
CQUAD4   2152    1       2874    2875    2890    2889
CQUAD4   2153    1       2875    2876    2891    2890
CQUAD4   2154    1       2876    2891    2892    2877
CQUAD4   2155    1       2886    2887    2903    2905
CQUAD4   2156    1       2887    2888    2901    2903
CQUAD4   2157    1       2888    2889    2900    2901
CQUAD4   2158    1       2889    2890    2902    2900
CQUAD4   2159    1       2890    2891    2904    2902
CQUAD4   2160    1       2891    2904    2906    2892
CQUAD4   2161    1       2905    2903    2910    2912
CQUAD4   2162    1       2903    2901    2908    2910
CQUAD4   2163    1       2901    2900    2907    2908
CQUAD4   2164    1       2900    2902    2909    2907
CQUAD4   2165    1       2902    2904    2911    2909
CQUAD4   2166    1       2904    2911    2913    2906
CQUAD4   2167    1       2912    2910    2917    2919
CQUAD4   2168    1       2910    2908    2915    2917
CQUAD4   2169    1       2908    2907    2914    2915
CQUAD4   2170    1       2907    2909    2916    2914
CQUAD4   2171    1       2909    2911    2918    2916
$ ... 8 like lines cut
CTRIA3   2180    1       2922    2921    2927
CQUAD4   2181    1       2921    2923    2928    2927
CQUAD4   2182    1       2923    2925    1462    2928
CTRIA3   2183    1       2927    2930    2926
CTRIA3   2184    1       2927    2932    2930
CTRIA3   2185    1       2928    1462    2934
CTRIA3   2186    1       2928    2934    2932
CTRIA3   2187    1       2928    2932    2927
CTRIA3   2188    1       2930    2932    2936
CTRIA3   2189    1       2932    1471    2939
CTRIA3   2190    1       2939    2936    2932
CTRIA3   2191    1       2932    2934    1471
CTRIA3   2192    1       2936    2939    1481
CTRIA3   2193    1       1481    1471    2939
CTRIA3   2194    1       2543    1067    1076
CTRIA3   2197    1       2543    1076    2542
CQUAD4   2243    1       1494    3008    3035    1493
CQUAD4   2244    1       3008    3009    3024    3035
CQUAD4   2245    1       3009    3010    3023    3024
CQUAD4   2246    1       3010    3011    3022    3023
CQUAD4   2247    1       3011    3012    3017    3022
CQUAD4   2248    1       3012    3013    3018    3017
CQUAD4   2249    1       3013    3014    3019    3018
CQUAD4   2250    1       3014    3015    3020    3019
CQUAD4   2251    1       3015    2997    2991    3020
CQUAD4   2252    1       1493    3035    3043    1492
CQUAD4   2253    1       3035    3024    3032    3043
CQUAD4   2254    1       3024    3023    3031    3032
CQUAD4   2255    1       3023    3022    3026    3031
CQUAD4   2256    1       3022    3017    3025    3026
CQUAD4   2257    1       3017    3018    3027    3025
CQUAD4   2258    1       3018    3019    3028    3027
CQUAD4   2259    1       3019    3020    3029    3028
CQUAD4   2260    1       3020    2991    2983    3029
CQUAD4   2261    1       1492    3043    3049    1491
CQUAD4   2262    1       3043    3032    3041    3049
$ ... 139 like lines cut
CTRIA3   2402    1       3242    3255    3259
CQUAD4   2403    1       3242    3243    3256    3255
CQUAD4   2404    1       3243    3244    3260    3256
CQUAD4   2405    1       3257    3258    3265    3264
CQUAD4   2406    1       3258    3259    3262    3265
CQUAD4   2407    1       3259    3255    3263    3262
CQUAD4   2408    1       3255    3256    3261    3263
CQUAD4   2409    1       3256    3260    3266    3261
CQUAD4   2410    1       3264    3265    3271    3270
CQUAD4   2411    1       3265    3262    3267    3271
CQUAD4   2412    1       3262    3263    3268    3267
CQUAD4   2413    1       3263    3261    3269    3268
CQUAD4   2414    1       3261    3266    3272    3269
CQUAD4   2415    1       3270    3271    3274    3273
CQUAD4   2416    1       3271    3267    3275    3274
CQUAD4   2417    1       3267    3268    3276    3275
CQUAD4   2420    1       3273    3274    3286    3285
CQUAD4   2421    1       3274    3275    3287    3286
CQUAD4   2422    1       3275    3276    3288    3287
CQUAD4   2423    1       3276    3277    3289    3288
CQUAD4   2425    1       3285    3286    3292    3291
$ ... 306 like lines cut
CTRIA3   3166    1       6335    6342    6338
CQUAD4   3167    1       6335    6338    6339    6336
CQUAD4   3168    1       6336    6339    3260    3244
CQUAD4   3169    1       6340    6347    6348    6341
CQUAD4   3170    1       6341    6348    6345    6342
CQUAD4   3171    1       6342    6345    6346    6338
CQUAD4   3172    1       6338    6346    6344    6339
CQUAD4   3173    1       6339    6344    3266    3260
CQUAD4   3174    1       6347    6353    6354    6348
CQUAD4   3175    1       6348    6354    6350    6345
CQUAD4   3176    1       6345    6350    6351    6346
CQUAD4   3177    1       6346    6351    6352    6344
CQUAD4   3178    1       6344    6352    3272    3266
CQUAD4   3179    1       6353    6356    6357    6354
CQUAD4   3180    1       6354    6357    6358    6350
CQUAD4   3181    1       6350    6358    6359    6351
CQUAD4   3184    1       6356    6362    6363    6357
CQUAD4   3185    1       6357    6363    6364    6358
CQUAD4   3186    1       6358    6364    6365    6359
CQUAD4   3187    1       6359    6365    3289    3277
CQUAD4   3189    1       6362    6368    6369    6363
$ ... 199 like lines cut
CTRIA3   3456    1       2928    2934    1462
CTRIA3   3457    1       1481    1471    2939
CQUAD4   4537    1       1451    1453    1462    1458
CTRIA3   4552    1       1481    1472    1471
CQUAD4   4604    1       8007    8006    8008    8009
CQUAD4   4605    1       8009    8008    8011    8010
CQUAD4   4606    1       8010    8011    8013    8012
CQUAD4   4607    1       8012    8013    8015    8014
CQUAD4   4608    1       8014    8015    8017    8016
CQUAD4   4609    1       8016    8017    1453    1451
CTRIA3   4610    1       8020    8022    1462
CQUAD4   4611    1       1       8027    8037    11
CQUAD4   4612    1       8027    8028    8038    8037
CQUAD4   4613    1       8028    8029    8039    8038
CQUAD4   4614    1       8029    8030    8040    8039
CQUAD4   4615    1       8030    8031    8041    8040
CQUAD4   4616    1       8031    8032    8042    8041
CQUAD4   4617    1       8032    8033    8043    8042
CQUAD4   4618    1       8033    8034    8044    8043
CQUAD4   4619    1       8034    8035    8045    8044
CQUAD4   4620    1       11      8037    8047    21
CQUAD4   4621    1       8037    8038    8048    8047
CQUAD4   4622    1       8038    8039    8049    8048
CQUAD4   4623    1       8039    8040    8050    8049
CQUAD4   4624    1       8040    8041    8051    8050
CQUAD4   4625    1       8041    8042    8052    8051
CQUAD4   4626    1       8042    8043    8053    8052
CQUAD4   4627    1       8043    8044    8054    8053
CQUAD4   4628    1       8044    8045    8055    8054
CQUAD4   4629    1       21      8047    8057    31
CQUAD4   4630    1       8047    8048    8058    8057
$ ... 788 like lines cut
CTRIA3   5419    1       1076    8923    8933
CQUAD4   5420    1       8926    8936    8937    8927
CQUAD4   5421    1       8927    8937    8938    8928
CQUAD4   5422    1       8928    8938    8939    8929
CQUAD4   5423    1       8929    8939    8940    8930
CQUAD4   5424    1       8930    8940    8941    8931
CQUAD4   5425    1       8931    8941    8942    8932
CQUAD4   5426    1       8932    8942    8943    8933
CQUAD4   5427    1       8933    8943    1105    1076
CQUAD4   5428    1       8936    8945    8946    8937
CQUAD4   5429    1       8937    8946    8947    8938
CQUAD4   5430    1       8938    8947    8948    8939
CQUAD4   5431    1       8939    8948    8949    8940
CQUAD4   5432    1       8940    8949    8950    8941
CQUAD4   5433    1       8941    8950    8951    8942
CQUAD4   5434    1       8942    8951    8952    8943
CQUAD4   5435    1       8943    8952    1115    1105
CQUAD4   5436    1       8945    8954    8955    8946
CQUAD4   5437    1       8946    8955    8956    8947
CQUAD4   5438    1       8947    8956    8957    8948
CQUAD4   5439    1       8948    8957    8958    8949
$ ... 168 like lines cut
CTRIA3   5610    1       9139    9150    9141
CQUAD4   5611    1       9141    9150    9151    9142
CQUAD4   5612    1       9142    9151    9152    9143
CQUAD4   5613    1       9143    9152    2841    2832
CQUAD4   5615    1       9146    9159    9157    9147
CQUAD4   5616    1       9147    9157    9155    9148
CQUAD4   5617    1       9148    9155    9156    9149
CQUAD4   5618    1       9149    9156    9158    9150
CQUAD4   5619    1       9150    9158    9160    9151
CQUAD4   5620    1       9151    9160    9162    9152
CQUAD4   5621    1       9152    9162    8007    2841
CQUAD4   5623    1       9159    9169    9166    9157
CQUAD4   5624    1       9157    9166    9164    9155
CQUAD4   5625    1       9155    9164    9165    9156
CQUAD4   5626    1       9156    9165    9167    9158
CQUAD4   5627    1       9158    9167    9168    9160
CQUAD4   5628    1       9160    9168    9170    9162
CQUAD4   5629    1       9162    9170    8009    8007
CQUAD4   5630    1       8007    8009    8008    8006
CQUAD4   5631    1       9169    9173    9174    9166
CQUAD4   5632    1       9166    9174    9175    9164
CQUAD4   5633    1       9164    9175    9176    9165
CTRIA3   5634    1       9165    9176    9167
CQUAD4   5635    1       9167    9176    9177    9168
CQUAD4   5636    1       9168    9177    9178    9170
CQUAD4   5637    1       9170    9178    8010    8009
CQUAD4   5638    1       8009    8010    8011    8008
CQUAD4   5639    1       9173    9181    9182    9174
CQUAD4   5640    1       9174    9182    9183    9175
CQUAD4   5641    1       9175    9183    9184    9176
CTRIA3   5642    1       9176    9184    9177
CQUAD4   5643    1       9177    9184    9185    9178
CQUAD4   5644    1       9178    9185    8012    8010
CQUAD4   5645    1       8010    8012    8013    8011
CQUAD4   5646    1       9181    9193    9191    9182
CQUAD4   5647    1       9182    9191    9189    9183
CQUAD4   5648    1       9183    9189    9188    9184
CQUAD4   5649    1       9184    9188    9190    9185
CQUAD4   5650    1       9185    9190    8014    8012
CQUAD4   5651    1       8012    8014    8015    8013
CQUAD4   5652    1       9193    9200    9198    9191
CQUAD4   5653    1       9191    9198    9196    9189
CQUAD4   5654    1       9189    9196    9195    9188
CQUAD4   5655    1       9188    9195    9197    9190
CQUAD4   5656    1       9190    9197    8016    8014
CQUAD4   5657    1       8014    8016    8017    8015
CQUAD4   5658    1       9200    9207    9205    9198
CQUAD4   5659    1       9198    9205    9203    9196
CQUAD4   5660    1       9196    9203    9202    9195
CQUAD4   5661    1       9195    9202    9204    9197
CQUAD4   5662    1       9197    9204    1451    8016
$ ... 7 like lines cut
CTRIA3   5670    1       9210    9215    9209
CQUAD4   5671    1       9209    9215    8020    9211
CQUAD4   5672    1       9211    8020    1462    1458
CTRIA3   5673    1       9215    9214    9218
CTRIA3   5674    1       9215    9218    9219
CTRIA3   5675    1       8020    1462    8022
CTRIA3   5676    1       8020    9219    8022
CTRIA3   5677    1       8020    9215    9219
CTRIA3   5678    1       9218    9221    9219
CTRIA3   5679    1       9219    1472    1471
CTRIA3   5680    1       1472    9219    9221
CTRIA3   5681    1       9219    1471    8022
CTRIA3   5682    1       9221    1481    1472
CTRIA3   5683    1       8924    1076    1067
CTRIA3   5684    1       8924    8923    1076
CQUAD4   5685    1       8035    8034    9256    9232
CQUAD4   5686    1       9232    9256    9246    9233
CQUAD4   5687    1       9233    9246    9245    9234
CQUAD4   5688    1       9234    9245    9244    9235
CQUAD4   5689    1       9235    9244    9240    9236
CQUAD4   5690    1       9236    9240    9241    9237
CQUAD4   5691    1       9237    9241    9242    9238
CQUAD4   5692    1       9238    9242    9243    9239
CQUAD4   5693    1       9239    9243    2991    2997
CQUAD4   5694    1       8034    8033    9263    9256
CQUAD4   5695    1       9256    9263    9253    9246
CQUAD4   5696    1       9246    9253    9252    9245
CQUAD4   5697    1       9245    9252    9248    9244
CQUAD4   5698    1       9244    9248    9247    9240
CQUAD4   5699    1       9240    9247    9249    9241
CQUAD4   5700    1       9241    9249    9250    9242
CQUAD4   5701    1       9242    9250    9251    9243
CQUAD4   5702    1       9243    9251    2983    2991
CQUAD4   5703    1       8033    8032    9268    9263
CQUAD4   5704    1       9263    9268    9261    9253
$ ... 48 like lines cut
CTRIA3   5766    1       3645    9326    6640
CTRIA3   5767    1       6640    9326    3650
CTRIA3   5768    1       3645    3647    9326
CTRIA3   5769    1       3647    3650    9326
CTRIA3   5771    1       6352    9333    3272
CTRIA3   5773    1       3269    3272    9334
CTRIA3   5774    1       9333    9334    3272
CTRIA3   5776    1       6615    3603    3592
CTRIA3   5777    1       3604    3591    3603
CQUAD4   5778    1       6351    6359    9333    6352
CTRIA3   5779    1       6359    3277    9333
CQUAD4   5780    1       3268    3269    9334    3276
CTRIA3   5781    1       3276    9334    3277
CTRIA3   5782    1       9333    3277    9334
CTRIA3   5783    1       2841    8007    2858
CTRIA3   5784    1       2860    2841    2858
CQUAD4   5785    1       9277    9278    9280    9279
$ Referenced Material Records
$ Material Record : steel
$ Description of Material : Date: 18-Sep-17           Time: 19:37:08
MAT1     1      2.1+11          .3      7.85-9
$ Nodes of the Entire Model
GRID     1              -.003956.136172 2918.19
GRID     11             874.996 .136172 2918.19
GRID     21             1750.   .136172 2918.19
GRID     31             2625.   .136172 2918.19
GRID     51             3500.   .13617  2965.26
GRID     61             4375.   .136168 3012.33
GRID     71             5250.   .136166 3059.4
GRID     91             6125.   .136166 3057.76
GRID     101            7000.   .136166 3056.11
GRID     111            7875.   .136166 3054.47
GRID     131            8750.   .13617  2975.35
GRID     141            9625.   .136173 2896.24
GRID     151            10500.  .136177 2817.13
GRID     178            11375.  .136179 2769.7
GRID     188            12250.  .136181 2722.27
GRID     198            13125.  .136183 2674.84
GRID     208            14000.  .136185 2627.41
GRID     218            14875.  .136187 2579.98
GRID     228            15750.  .136189 2532.55
GRID     248            16625.  .136193 2443.5
$ ... 3159 like lines cut
$ Loads for Load Case : Default
$ Referenced Coordinate Frames
ENDDATA 3c3c77ad
