$ NASTRAN input file created by the MSC MSC.Nastran input file
$ translator ( MSC.Patran 13.1.084 ) on September 22, 2017 at 15:57:44.
ASSIGN DBC='unsymmetry.xdb', RECL=65536
$ Direct Text Input for Nastran System Cell Section
$ Direct Text Input for File Management Section
$ Linear Static Analysis, Database
SOL 101
$ Direct Text Input for Executive Control
CEND
TITLE = MSC.Nastran job created on 22-Sep-17 at 15:53:51
ECHO = NONE
$ Direct Text Input for Global Case Control Data
SUBCASE 1
$ Subcase name : Default
   SUBTITLE=Default
   DISPLACEMENT(SORT1,REAL)=ALL
   SPCFORCES(SORT1,REAL)=ALL
   STRESS(SORT1,REAL,VONMISES,BILIN)=ALL
$ Direct Text Input for this Subcase
BEGIN BULK
PARAM    POST    0
PARAM   PRTMAXIM YES
$ Direct Text Input for Bulk Data
$ Elements and Element Properties for region : shell
PSHELL   1       1      10.      1               1
$ Pset: "shell" will be imported as: "pshell.1"
CQUAD4   13422   1       16712   16713   16726   16725
CQUAD4   13423   1       16713   16714   16727   16726
CQUAD4   13424   1       16714   16715   16728   16727
CQUAD4   13425   1       16715   16716   16729   16728
CQUAD4   13426   1       16716   16717   16730   16729
CQUAD4   13427   1       16717   16718   16731   16730
CQUAD4   13428   1       16718   16719   16732   16731
CQUAD4   13429   1       16719   16720   16733   16732
CQUAD4   13430   1       16720   16721   16734   16733
CQUAD4   13431   1       16721   16722   16735   16734
CQUAD4   13432   1       16722   16723   16736   16735
CQUAD4   13433   1       16723   16724   16737   16736
CQUAD4   13434   1       16725   16726   16739   16738
CQUAD4   13435   1       16726   16727   16740   16739
CQUAD4   13436   1       16727   16728   16741   16740
CQUAD4   13437   1       16728   16729   16742   16741
CQUAD4   13438   1       16729   16730   16743   16742
CQUAD4   13439   1       16730   16731   16744   16743
CQUAD4   13440   1       16731   16732   16745   16744
CQUAD4   13441   1       16732   16733   16746   16745
$ ... 385 like lines cut
CTRIA3   13827   1       17079   17092   17080
CQUAD4   13828   1       17084   17095   17096   17085
CTRIA3   13829   1       17083   17095   17084
CQUAD4   13830   1       17166   17167   17178   17177
CQUAD4   13831   1       17167   17168   17179   17178
CQUAD4   13832   1       17168   17169   17180   17179
CQUAD4   13833   1       17169   17170   17181   17180
CQUAD4   13834   1       17170   17171   17182   17181
CQUAD4   13835   1       17171   17172   17183   17182
CQUAD4   13836   1       17172   17173   17184   17183
CQUAD4   13837   1       17173   17174   17185   17184
CQUAD4   13838   1       17174   17175   17186   17185
CQUAD4   13839   1       17175   17176   17187   17186
CQUAD4   13840   1       17177   17178   17189   17188
CQUAD4   13841   1       17178   17179   17190   17189
CQUAD4   13842   1       17179   17180   17191   17190
CQUAD4   13843   1       17180   17181   17192   17191
CQUAD4   13844   1       17181   17182   17193   17192
CQUAD4   13845   1       17182   17183   17194   17193
CQUAD4   13846   1       17183   17184   17195   17194
CQUAD4   13847   1       17184   17185   17196   17195
CQUAD4   13848   1       17185   17186   17197   17196
CQUAD4   13849   1       17186   17187   17198   17197
$ ... 975 like lines cut
CTRIA3   14825   1       17888   17887   18187
CQUAD4   14826   1       17883   18182   18183   17884
CTRIA3   14827   1       17882   18182   17883
CQUAD4   14828   1       18246   17897   17898   18247
CTRIA3   14829   1       18245   17897   18246
CQUAD4   14830   1       18150   18312   18256   18251
CQUAD4   14831   1       18251   18256   18257   18252
CQUAD4   14832   1       18252   18257   18258   18253
CQUAD4   14833   1       18254   18259   18260   18147
CQUAD4   14834   1       18147   18260   18261   18255
CQUAD4   14835   1       18255   18261   18262   18148
CQUAD4   14836   1       18148   18262   18263   18149
CQUAD4   14837   1       18312   18311   18264   18256
CQUAD4   14838   1       18256   18264   18265   18257
CQUAD4   14839   1       18257   18265   18266   18258
CQUAD4   14840   1       18258   18266   18267   18259
CQUAD4   14841   1       18259   18267   18268   18260
CQUAD4   14842   1       18260   18268   18269   18261
CQUAD4   14843   1       18261   18269   18270   18262
CQUAD4   14844   1       18262   18270   18271   18263
CQUAD4   14845   1       18311   18318   18278   18264
CQUAD4   14846   1       18264   18278   18272   18265
CQUAD4   14847   1       18265   18272   18273   18266
CQUAD4   14848   1       18266   18273   18274   18267
CQUAD4   14849   1       18267   18274   18275   18268
$ ... 32 like lines cut
CTRIA3   14882   1       18146   18259   18254
CQUAD4   14883   1       18276   18280   18281   18279
CTRIA3   14884   1       18275   18280   18276
CQUAD4   14885   1       18272   18283   18284   18273
CTRIA3   14886   1       18278   18283   18272
CQUAD4   14887   1       18310   18286   18287   18280
CTRIA3   14888   1       18284   18286   18310
CQUAD4   14889   1       16712   16725   18336   18324
CQUAD4   14890   1       18324   18336   18337   18325
CQUAD4   14891   1       18325   18337   18338   18326
CQUAD4   14892   1       18326   18338   18339   18327
CQUAD4   14893   1       18327   18339   18340   18328
CQUAD4   14894   1       18328   18340   18341   18329
CQUAD4   14895   1       18329   18341   18342   18330
CQUAD4   14896   1       18330   18342   18343   18331
CQUAD4   14897   1       18331   18343   18344   18332
CQUAD4   14898   1       18332   18344   18345   18333
CQUAD4   14899   1       18333   18345   18346   18334
CQUAD4   14900   1       18334   18346   18347   18335
CQUAD4   14901   1       16725   16738   18348   18336
CQUAD4   14902   1       18336   18348   18349   18337
CQUAD4   14903   1       18337   18349   18350   18338
CQUAD4   14904   1       18338   18350   18351   18339
CQUAD4   14905   1       18339   18351   18352   18340
CQUAD4   14906   1       18340   18352   18353   18341
CQUAD4   14907   1       18341   18353   18354   18342
CQUAD4   14908   1       18342   18354   18355   18343
$ ... 385 like lines cut
CTRIA3   15294   1       18663   18664   18675
CQUAD4   15295   1       18668   18669   18679   18678
CTRIA3   15296   1       18667   18668   18678
CQUAD4   15297   1       18742   18752   18753   18743
CQUAD4   15298   1       18743   18753   18754   18744
CQUAD4   15299   1       18744   18754   18755   18745
CQUAD4   15300   1       18745   18755   18756   18746
CQUAD4   15301   1       18746   18756   18757   18747
CQUAD4   15302   1       18747   18757   18758   18748
CQUAD4   15303   1       18748   18758   18759   18749
CQUAD4   15304   1       18749   18759   18760   18750
CQUAD4   15305   1       18750   18760   18761   18751
CQUAD4   15306   1       18751   18761   17187   17176
CQUAD4   15307   1       18752   18762   18763   18753
CQUAD4   15308   1       18753   18763   18764   18754
CQUAD4   15309   1       18754   18764   18765   18755
CQUAD4   15310   1       18755   18765   18766   18756
CQUAD4   15311   1       18756   18766   18767   18757
CQUAD4   15312   1       18757   18767   18768   18758
CQUAD4   15313   1       18758   18768   18769   18759
CQUAD4   15314   1       18759   18769   18770   18760
CQUAD4   15315   1       18760   18770   18771   18761
CQUAD4   15316   1       18761   18771   17198   17187
$ ... 975 like lines cut
CTRIA3   16292   1       19403   19671   19402
CQUAD4   16293   1       19398   19399   19667   19666
CTRIA3   16294   1       19397   19398   19666
CQUAD4   16295   1       19729   19730   19413   19412
CTRIA3   16296   1       19728   19729   19412
CQUAD4   16297   1       18150   19734   19739   18312
CQUAD4   16298   1       19734   19735   19740   19739
CQUAD4   16299   1       19735   19736   19741   19740
CQUAD4   16300   1       19737   19662   19743   19742
CQUAD4   16301   1       19662   19738   19744   19743
CQUAD4   16302   1       19738   19663   19745   19744
CQUAD4   16303   1       19663   19664   19746   19745
CQUAD4   16304   1       18312   19739   19747   18311
CQUAD4   16305   1       19739   19740   19748   19747
CQUAD4   16306   1       19740   19741   19749   19748
CQUAD4   16307   1       19741   19742   19750   19749
CQUAD4   16308   1       19742   19743   19751   19750
CQUAD4   16309   1       19743   19744   19752   19751
CQUAD4   16310   1       19744   19745   19753   19752
CQUAD4   16311   1       19745   19746   19754   19753
CQUAD4   16312   1       18311   19747   19761   18318
CQUAD4   16313   1       19747   19748   19755   19761
CQUAD4   16314   1       19748   19749   19756   19755
CQUAD4   16315   1       19749   19750   19757   19756
CQUAD4   16316   1       19750   19751   19758   19757
$ ... 32 like lines cut
CTRIA3   16349   1       19661   19737   19742
CQUAD4   16350   1       19759   19762   19764   19763
CTRIA3   16351   1       19758   19759   19763
CQUAD4   16352   1       19755   19756   19767   19766
CTRIA3   16353   1       19761   19755   19766
CQUAD4   16354   1       19793   19763   19770   19769
CTRIA3   16355   1       19767   19793   19769
CQUAD4   16356   1       19792   19794   19795   19791
CQUAD4   16357   1       19791   19795   19796   19790
CQUAD4   16358   1       19790   19796   19797   19789
CQUAD4   16359   1       19789   19797   19798   19788
CQUAD4   16360   1       19794   19799   19800   19795
CQUAD4   16361   1       19795   19800   19801   19796
CQUAD4   16362   1       19796   19801   19802   19797
CQUAD4   16363   1       19797   19802   19803   19798
CQUAD4   16364   1       19799   19804   19805   19800
CQUAD4   16365   1       19800   19805   19806   19801
CQUAD4   16366   1       19801   19806   19807   19802
CQUAD4   16367   1       19802   19807   19808   19803
CTRIA3   16368   1       19808   18323   19788
CQUAD4   16369   1       17518   19809   19810   17519
CQUAD4   16370   1       17519   19810   19811   17520
CQUAD4   16371   1       17520   19811   19812   17521
CQUAD4   16372   1       17521   19812   19813   17522
CQUAD4   16373   1       17522   19813   19814   17523
CQUAD4   16374   1       17523   19814   19815   17524
CQUAD4   16375   1       17524   19815   19816   17525
CQUAD4   16376   1       17525   19816   19817   17526
CQUAD4   16377   1       17526   19817   19818   17527
CQUAD4   16378   1       17527   19818   19819   17528
CQUAD4   16379   1       19809   19820   19821   19810
CQUAD4   16380   1       19810   19821   19822   19811
CQUAD4   16381   1       19811   19822   19823   19812
CQUAD4   16382   1       19812   19823   19824   19813
CQUAD4   16383   1       19813   19824   19825   19814
CQUAD4   16384   1       19814   19825   19826   19815
CQUAD4   16385   1       19815   19826   19827   19816
CQUAD4   16386   1       19816   19827   19828   19817
CQUAD4   16387   1       19817   19828   19829   19818
CQUAD4   16388   1       19818   19829   19830   19819
$ ... 118 like lines cut
CTRIA3   16507   1       19947   19888   19887
CTRIA3   16508   1       19846   19938   19847
CQUAD4   16509   1       19808   19807   19951   19952
CQUAD4   16510   1       19807   19806   19950   19951
CQUAD4   16511   1       19806   19805   19949   19950
CQUAD4   16512   1       19805   19804   19948   19949
CQUAD4   16513   1       19952   19951   19957   19954
CQUAD4   16514   1       19951   19950   19955   19957
CQUAD4   16515   1       19950   19949   19956   19955
CQUAD4   16516   1       19949   19948   19953   19956
CQUAD4   16517   1       19954   19957   18306   18305
CQUAD4   16518   1       19957   19955   18307   18306
CQUAD4   16519   1       19955   19956   18308   18307
CQUAD4   16520   1       19956   19953   18309   18308
CTRIA3   16521   1       19808   18305   18323
CQUAD4   16522   1       19958   19967   19968   19959
CQUAD4   16523   1       19959   19968   19969   19960
CQUAD4   16524   1       19960   19969   19970   19961
CQUAD4   16525   1       19961   19970   19971   19962
CQUAD4   16526   1       19962   19971   19972   19963
CQUAD4   16527   1       19963   19972   19973   19964
CQUAD4   16528   1       19964   19973   19974   19965
CQUAD4   16529   1       19965   19974   19975   19966
CQUAD4   16530   1       19967   19976   19977   19968
CQUAD4   16531   1       19968   19977   19978   19969
CQUAD4   16532   1       19969   19978   19979   19970
CQUAD4   16533   1       19970   19979   19980   19971
CQUAD4   16534   1       19971   19980   19981   19972
CQUAD4   16535   1       19972   19981   19982   19973
CQUAD4   16536   1       19973   19982   19983   19974
CQUAD4   16537   1       19974   19983   19984   19975
CQUAD4   16538   1       19976   19985   19986   19977
CQUAD4   16539   1       19977   19986   19987   19978
CQUAD4   16540   1       19978   19987   19988   19979
CQUAD4   16541   1       19979   19988   19989   19980
$ ... 439 like lines cut
CTRIA3   16981   1       20388   20389   20396
CQUAD4   16982   1       20493   20394   20400   20399
CTRIA3   16983   1       20392   20493   20399
CQUAD4   16984   1       20246   20494   20499   20498
CQUAD4   16985   1       20495   20248   20501   20500
CQUAD4   16986   1       20248   20496   20502   20501
CQUAD4   16987   1       20497   20250   20504   20503
CQUAD4   16988   1       20498   20499   20506   20505
CQUAD4   16989   1       20499   20500   20507   20506
CQUAD4   16990   1       20500   20501   20508   20507
CQUAD4   16991   1       20501   20502   20509   20508
CQUAD4   16992   1       20502   20503   20510   20509
CQUAD4   16993   1       20503   20504   20511   20510
CQUAD4   16994   1       20505   20506   20513   20512
CQUAD4   16995   1       20506   20507   20514   20513
CQUAD4   16996   1       20507   20508   20515   20514
CQUAD4   16997   1       20508   20509   20516   20515
CQUAD4   16998   1       20509   20510   20517   20516
CQUAD4   16999   1       20510   20511   20518   20517
CQUAD4   17000   1       20512   20513   20520   20519
CQUAD4   17001   1       20513   20514   20521   20520
CQUAD4   17002   1       20514   20515   20522   20521
CQUAD4   17003   1       20515   20516   20523   20522
$ ... 59 like lines cut
CTRIA3   17063   1       20247   20495   20500
CQUAD4   17064   1       20496   20249   20503   20502
CTRIA3   17065   1       20249   20497   20503
CQUAD4   17066   1       19958   20589   20597   19967
CQUAD4   17067   1       20589   20590   20598   20597
CQUAD4   17068   1       20590   20591   20599   20598
CQUAD4   17069   1       20591   20592   20600   20599
CQUAD4   17070   1       20592   20593   20601   20600
CQUAD4   17071   1       20593   20594   20602   20601
CQUAD4   17072   1       20594   20595   20603   20602
CQUAD4   17073   1       20595   20596   20604   20603
CQUAD4   17074   1       19967   20597   20605   19976
CQUAD4   17075   1       20597   20598   20606   20605
CQUAD4   17076   1       20598   20599   20607   20606
CQUAD4   17077   1       20599   20600   20608   20607
CQUAD4   17078   1       20600   20601   20609   20608
CQUAD4   17079   1       20601   20602   20610   20609
CQUAD4   17080   1       20602   20603   20611   20610
CQUAD4   17081   1       20603   20604   20612   20611
CQUAD4   17082   1       19976   20605   20613   19985
CQUAD4   17083   1       20605   20606   20614   20613
CQUAD4   17084   1       20606   20607   20615   20614
CQUAD4   17085   1       20607   20608   20616   20615
$ ... 439 like lines cut
CTRIA3   17525   1       20970   20977   20971
CQUAD4   17526   1       21061   20980   20981   20976
CTRIA3   17527   1       20974   20980   21061
CQUAD4   17528   1       20845   21066   21067   21062
CQUAD4   17529   1       21063   21068   21069   20847
CQUAD4   17530   1       20847   21069   21070   21064
CQUAD4   17531   1       21065   21071   20504   20250
CQUAD4   17532   1       21066   21072   21073   21067
CQUAD4   17533   1       21067   21073   21074   21068
CQUAD4   17534   1       21068   21074   21075   21069
CQUAD4   17535   1       21069   21075   21076   21070
CQUAD4   17536   1       21070   21076   21077   21071
CQUAD4   17537   1       21071   21077   20511   20504
CQUAD4   17538   1       21072   21078   21079   21073
CQUAD4   17539   1       21073   21079   21080   21074
CQUAD4   17540   1       21074   21080   21081   21075
CQUAD4   17541   1       21075   21081   21082   21076
CQUAD4   17542   1       21076   21082   21083   21077
CQUAD4   17543   1       21077   21083   20518   20511
CQUAD4   17544   1       21078   21084   21085   21079
CQUAD4   17545   1       21079   21085   21086   21080
CQUAD4   17546   1       21080   21086   21087   21081
CQUAD4   17547   1       21081   21087   21088   21082
$ ... 58 like lines cut
CTRIA3   17606   1       20846   21068   21063
CQUAD4   17607   1       21064   21070   21071   20848
CTRIA3   17608   1       20848   21071   21065
CQUAD4   17609   1       20277   20278   20588   20276
CQUAD4   17610   1       20276   20588   20587   20275
CQUAD4   17611   1       20587   20586   20274   20275
CQUAD4   17612   1       20586   20585   20273   20274
CQUAD4   17613   1       20585   20584   20272   20273
CQUAD4   17614   1       20584   20583   20271   20272
CQUAD4   17615   1       20583   20582   20270   20271
CQUAD4   17616   1       20582   20554   20269   20270
CQUAD4   17617   1       20865   20269   20554   21136
CQUAD4   17618   1       20866   20865   21136   21137
CQUAD4   17619   1       21137   21138   20867   20866
CQUAD4   17620   1       21138   21139   20868   20867
CQUAD4   17621   1       21139   21140   20869   20868
CQUAD4   17622   1       21140   21141   20870   20869
CQUAD4   17623   1       21141   21142   20871   20870
CQUAD4   17624   1       21142   20873   20872   20871
CTRIA3   17625   1       21103   21108   21104
CQUAD4   17626   1       20551   21157   21158   20550
CQUAD4   17627   1       20550   21158   21159   20549
CQUAD4   17628   1       21157   21160   21161   21158
CQUAD4   17629   1       21158   21161   21162   21159
CQUAD4   17630   1       21159   21162   21150   21147
CQUAD4   17631   1       21148   21151   21163   21160
CQUAD4   17632   1       21160   21163   21164   21161
CQUAD4   17633   1       21161   21164   21165   21162
CQUAD4   17634   1       21162   21165   21153   21150
CQUAD4   17635   1       21156   21165   21164   21166
CQUAD4   17636   1       21166   21164   21163   21154
CTRIA3   17637   1       21156   21153   21165
CTRIA3   17638   1       21154   21163   21151
CTRIA3   17639   1       21167   21156   21166
CTRIA3   17640   1       21166   21154   21167
CQUAD4   17641   1       20552   21143   21157   20551
CQUAD4   17642   1       21060   21059   21169   21168
CQUAD4   17643   1       21059   21058   21170   21169
CQUAD4   17644   1       21058   21057   21171   21170
CQUAD4   17645   1       21057   21056   21172   21171
CQUAD4   17646   1       21056   21055   21173   21172
CQUAD4   17647   1       21055   20486   21174   21173
CQUAD4   17648   1       21168   21169   21176   21175
CQUAD4   17649   1       21169   21170   21177   21176
CQUAD4   17650   1       21170   21171   21178   21177
CQUAD4   17651   1       21171   21172   21179   21178
CQUAD4   17652   1       21172   21173   21180   21179
CQUAD4   17653   1       21173   21174   21181   21180
CQUAD4   17654   1       20492   21182   21183   20491
CQUAD4   17655   1       20491   21183   21184   20490
CQUAD4   17656   1       20490   21184   21185   20489
CQUAD4   17657   1       20489   21185   21186   20488
CQUAD4   17658   1       20488   21186   21187   20487
CQUAD4   17659   1       20487   21187   21174   20486
CQUAD4   17660   1       21182   21188   21189   21183
$ ... 23 like lines cut
CTRIA3   17684   1       21208   21193   21192
CTRIA3   17685   1       21179   21180   21206
CQUAD4   17686   1       20549   21159   21147   20548
CTRIA3   17687   1       20548   21147   20547
CQUAD4   17688   1       21160   21157   21143   21148
CQUAD4   17689   1       20553   21143   21144   21110
CQUAD4   17690   1       21110   21109   21145   21144
CQUAD4   17691   1       21109   21108   21146   21145
CQUAD4   17692   1       21108   20547   21147   21146
CQUAD4   17693   1       21144   21145   21149   21209
CQUAD4   17694   1       21145   21146   21210   21149
CQUAD4   17695   1       21146   21147   21150   21210
CQUAD4   17696   1       21148   21143   21144   21209
CQUAD4   17697   1       21144   21143   20553   21110
CQUAD4   17698   1       21153   21211   21210   21150
CQUAD4   17699   1       21211   21152   21149   21210
CQUAD4   17700   1       21152   21212   21209   21149
CQUAD4   17701   1       21212   21151   21148   21209
CTRIA3   17702   1       21211   21153   21156
CTRIA3   17703   1       21212   21154   21151
CQUAD4   17704   1       21211   21156   21155   21152
CQUAD4   17705   1       21155   21154   21212   21152
CTRIA3   17706   1       21156   21167   21155
CTRIA3   17707   1       21155   21167   21154
CTRIA3   17708   1       20552   20553   21143
$ Referenced Material Records
$ Material Record : steel
$ Description of Material : Date: 18-Sep-17           Time: 19:37:08
MAT1     1      2.1+11          .3      7.85-9
$ Nodes of the Entire Model
GRID     1344           21000.  12535.  1967.75
GRID     1353           21000.  10685.6 354.32
GRID     1354           21000.  11331.5 789.721
GRID     1355           21000.  11924.  1295.21
GRID     1358           21000.  13365.1 3129.36
GRID     1359           21000.  13749.6 3806.97
GRID     1444           26250.  10742.4 456.163
GRID     1445           26250.  11356.2 995.226
GRID     1446           26250.  11882.3 1620.09
GRID     1447           26250.  12330.9 2303.29
GRID     1448           26250.  12736.  3013.31
GRID     1449           26250.  13108.6 3740.93
GRID     1450           26250.  13458.5 4479.8
GRID     1451           26250.  13778.4 5232.
GRID     1454           27000.  10064.2 .503963
GRID     1465           27750.  10064.2 .647082
GRID     1476           28500.  10064.2 .718643
GRID     1487           29250.  10064.2 .718639
GRID     1498           30000.  10064.2 .647055
GRID     1509           30750.  10064.2 .503885
$ ... 4645 like lines cut
$ Loads for Load Case : Default
$ Referenced Coordinate Frames
ENDDATA 70899446
